*SPEF "IEEE 1481-1998"
*DESIGN "Filter"
*DATE "Mon Nov 16 22:14:51 2020"
*VENDOR "Cadence Design Systems, Inc."
*PROGRAM "Innovus"
*VERSION "17.11-s080_1"
*DESIGN_FLOW "COUPLING C" "PIN_CAP NONE" "NAME_SCOPE LOCAL"
*DIVIDER /
*DELIMITER :
*BUS_DELIMITER []
*T_UNIT 1 NS
*C_UNIT 1 PF
*R_UNIT 1 OHM
*L_UNIT 1 HENRY

// MMMC spef file for corner 'my_rc'

*NAME_MAP

*1 DIN[10]
*2 DIN[9]
*3 DIN[8]
*4 DIN[7]
*5 DIN[6]
*6 DIN[5]
*7 DIN[4]
*8 DIN[3]
*9 DIN[2]
*10 DIN[1]
*11 DIN[0]
*12 VIN
*13 RST_n
*14 CLK
*15 b0[10]
*16 b0[9]
*17 b0[8]
*18 b0[7]
*19 b0[6]
*20 b0[5]
*21 b0[4]
*22 b0[3]
*23 b0[2]
*24 b0[1]
*25 b0[0]
*26 b1[10]
*27 b1[9]
*28 b1[8]
*29 b1[7]
*30 b1[6]
*31 b1[5]
*32 b1[4]
*33 b1[3]
*34 b1[2]
*35 b1[1]
*36 b1[0]
*37 a1[10]
*38 a1[9]
*39 a1[8]
*40 a1[7]
*41 a1[6]
*42 a1[5]
*43 a1[4]
*44 a1[3]
*45 a1[2]
*46 a1[1]
*47 a1[0]
*48 DOUT[10]
*49 DOUT[9]
*50 DOUT[8]
*51 DOUT[7]
*52 DOUT[6]
*53 DOUT[5]
*54 DOUT[4]
*55 DOUT[3]
*56 DOUT[2]
*57 DOUT[1]
*58 DOUT[0]
*59 VOUT
*60 FE_OFN3_VIN
*61 FE_OFN2_sw_0
*62 FE_OFN1_w_0
*63 FE_OFN0_VIN_del_0
*64 FE_DBTN1_sw_0
*65 FE_DBTN0_sw_1
*66 VIN_del_0_
*67 reg_DIN_n33
*68 reg_DIN_n32
*69 reg_DIN_n31
*70 reg_DIN_n30
*71 reg_DIN_n29
*72 reg_DIN_n28
*73 reg_DIN_n27
*74 reg_DIN_n26
*75 reg_DIN_n25
*76 reg_DIN_n24
*77 reg_DIN_n23
*78 reg_DIN_n22
*79 reg_DIN_n21
*80 reg_DIN_n20
*81 reg_DIN_n19
*82 reg_DIN_n18
*83 reg_DIN_n17
*84 reg_DIN_n16
*85 reg_DIN_n15
*86 reg_DIN_n14
*87 reg_DIN_n13
*88 reg_DIN_n12
*89 reg_DIN_n11
*90 reg_DIN_n10
*91 reg_DIN_n9
*92 reg_DIN_n8
*93 reg_DIN_n7
*94 reg_DIN_n6
*95 reg_DIN_n5
*96 reg_DIN_n4
*97 reg_DIN_n3
*98 reg_DIN_n2
*99 reg_DIN_n1
*100 reg_a1_n68
*101 reg_a1_n67
*102 reg_a1_n66
*103 reg_a1_n65
*104 reg_a1_n64
*105 reg_a1_n63
*106 reg_a1_n62
*107 reg_a1_n61
*108 reg_a1_n60
*109 reg_a1_n59
*110 reg_a1_n58
*111 reg_a1_n57
*112 reg_a1_n56
*113 reg_a1_n55
*114 reg_a1_n54
*115 reg_a1_n53
*116 reg_a1_n52
*117 reg_a1_n51
*118 reg_a1_n50
*119 reg_a1_n49
*120 reg_a1_n48
*121 reg_a1_n47
*122 reg_a1_n46
*123 reg_a1_n45
*124 reg_a1_n44
*125 reg_a1_n43
*126 reg_a1_n42
*127 reg_a1_n41
*128 reg_a1_n40
*129 reg_a1_n39
*130 reg_a1_n38
*131 reg_a1_n37
*132 reg_a1_n36
*133 reg_b1_n68
*134 reg_b1_n67
*135 reg_b1_n66
*136 reg_b1_n65
*137 reg_b1_n64
*138 reg_b1_n63
*139 reg_b1_n62
*140 reg_b1_n61
*141 reg_b1_n60
*142 reg_b1_n59
*143 reg_b1_n58
*144 reg_b1_n57
*145 reg_b1_n56
*146 reg_b1_n55
*147 reg_b1_n54
*148 reg_b1_n53
*149 reg_b1_n52
*150 reg_b1_n51
*151 reg_b1_n50
*152 reg_b1_n49
*153 reg_b1_n48
*154 reg_b1_n47
*155 reg_b1_n46
*156 reg_b1_n45
*157 reg_b1_n44
*158 reg_b1_n43
*159 reg_b1_n42
*160 reg_b1_n41
*161 reg_b1_n40
*162 reg_b1_n39
*163 reg_b1_n38
*164 reg_b1_n37
*165 reg_b1_n36
*166 reg_b0_n68
*167 reg_b0_n67
*168 reg_b0_n66
*169 reg_b0_n65
*170 reg_b0_n64
*171 reg_b0_n63
*172 reg_b0_n62
*173 reg_b0_n61
*174 reg_b0_n60
*175 reg_b0_n59
*176 reg_b0_n58
*177 reg_b0_n57
*178 reg_b0_n56
*179 reg_b0_n55
*180 reg_b0_n54
*181 reg_b0_n53
*182 reg_b0_n52
*183 reg_b0_n51
*184 reg_b0_n50
*185 reg_b0_n49
*186 reg_b0_n48
*187 reg_b0_n47
*188 reg_b0_n46
*189 reg_b0_n45
*190 reg_b0_n44
*191 reg_b0_n43
*192 reg_b0_n42
*193 reg_b0_n41
*194 reg_b0_n40
*195 reg_b0_n39
*196 reg_b0_n38
*197 reg_b0_n37
*198 reg_b0_n36
*199 mul_a1_P_0_
*200 mul_a1_P_23_
*201 mul_a1_mult_18_n553
*202 mul_a1_mult_18_n552
*203 mul_a1_mult_18_n551
*204 mul_a1_mult_18_n550
*205 mul_a1_mult_18_n549
*206 mul_a1_mult_18_n548
*207 mul_a1_mult_18_n547
*208 mul_a1_mult_18_n546
*209 mul_a1_mult_18_n545
*210 mul_a1_mult_18_n544
*211 mul_a1_mult_18_n543
*212 mul_a1_mult_18_n542
*213 mul_a1_mult_18_n541
*214 mul_a1_mult_18_n540
*215 mul_a1_mult_18_n539
*216 mul_a1_mult_18_n538
*217 mul_a1_mult_18_n537
*218 mul_a1_mult_18_n536
*219 mul_a1_mult_18_n535
*220 mul_a1_mult_18_n534
*221 mul_a1_mult_18_n533
*222 mul_a1_mult_18_n532
*223 mul_a1_mult_18_n531
*224 mul_a1_mult_18_n530
*225 mul_a1_mult_18_n529
*226 mul_a1_mult_18_n528
*227 mul_a1_mult_18_n527
*228 mul_a1_mult_18_n526
*229 mul_a1_mult_18_n525
*230 mul_a1_mult_18_n524
*231 mul_a1_mult_18_n523
*232 mul_a1_mult_18_n522
*233 mul_a1_mult_18_n521
*234 mul_a1_mult_18_n520
*235 mul_a1_mult_18_n519
*236 mul_a1_mult_18_n518
*237 mul_a1_mult_18_n517
*238 mul_a1_mult_18_n516
*239 mul_a1_mult_18_n515
*240 mul_a1_mult_18_n514
*241 mul_a1_mult_18_n513
*242 mul_a1_mult_18_n512
*243 mul_a1_mult_18_n511
*244 mul_a1_mult_18_n510
*245 mul_a1_mult_18_n509
*246 mul_a1_mult_18_n508
*247 mul_a1_mult_18_n507
*248 mul_a1_mult_18_n506
*249 mul_a1_mult_18_n505
*250 mul_a1_mult_18_n504
*251 mul_a1_mult_18_n503
*252 mul_a1_mult_18_n502
*253 mul_a1_mult_18_n501
*254 mul_a1_mult_18_n500
*255 mul_a1_mult_18_n499
*256 mul_a1_mult_18_n498
*257 mul_a1_mult_18_n497
*258 mul_a1_mult_18_n496
*259 mul_a1_mult_18_n495
*260 mul_a1_mult_18_n494
*261 mul_a1_mult_18_n493
*262 mul_a1_mult_18_n492
*263 mul_a1_mult_18_n491
*264 mul_a1_mult_18_n490
*265 mul_a1_mult_18_n489
*266 mul_a1_mult_18_n488
*267 mul_a1_mult_18_n487
*268 mul_a1_mult_18_n486
*269 mul_a1_mult_18_n485
*270 mul_a1_mult_18_n484
*271 mul_a1_mult_18_n483
*272 mul_a1_mult_18_n482
*273 mul_a1_mult_18_n481
*274 mul_a1_mult_18_n480
*275 mul_a1_mult_18_n479
*276 mul_a1_mult_18_n478
*277 mul_a1_mult_18_n477
*278 mul_a1_mult_18_n476
*279 mul_a1_mult_18_n475
*280 mul_a1_mult_18_n474
*281 mul_a1_mult_18_n473
*282 mul_a1_mult_18_n472
*283 mul_a1_mult_18_n471
*284 mul_a1_mult_18_n470
*285 mul_a1_mult_18_n469
*286 mul_a1_mult_18_n468
*287 mul_a1_mult_18_n467
*288 mul_a1_mult_18_n466
*289 mul_a1_mult_18_n465
*290 mul_a1_mult_18_n464
*291 mul_a1_mult_18_n463
*292 mul_a1_mult_18_n462
*293 mul_a1_mult_18_n461
*294 mul_a1_mult_18_n460
*295 mul_a1_mult_18_n459
*296 mul_a1_mult_18_n458
*297 mul_a1_mult_18_n457
*298 mul_a1_mult_18_n456
*299 mul_a1_mult_18_n455
*300 mul_a1_mult_18_n454
*301 mul_a1_mult_18_n453
*302 mul_a1_mult_18_n452
*303 mul_a1_mult_18_n451
*304 mul_a1_mult_18_n450
*305 mul_a1_mult_18_n449
*306 mul_a1_mult_18_n448
*307 mul_a1_mult_18_n447
*308 mul_a1_mult_18_n446
*309 mul_a1_mult_18_n445
*310 mul_a1_mult_18_n444
*311 mul_a1_mult_18_n441
*312 mul_a1_mult_18_n440
*313 mul_a1_mult_18_n439
*314 mul_a1_mult_18_n438
*315 mul_a1_mult_18_n437
*316 mul_a1_mult_18_n436
*317 mul_a1_mult_18_n435
*318 mul_a1_mult_18_n434
*319 mul_a1_mult_18_n433
*320 mul_a1_mult_18_n432
*321 mul_a1_mult_18_n431
*322 mul_a1_mult_18_n430
*323 mul_a1_mult_18_n429
*324 mul_a1_mult_18_n428
*325 mul_a1_mult_18_n427
*326 mul_a1_mult_18_n426
*327 mul_a1_mult_18_n425
*328 mul_a1_mult_18_n424
*329 mul_a1_mult_18_n423
*330 mul_a1_mult_18_n422
*331 mul_a1_mult_18_n421
*332 mul_a1_mult_18_n420
*333 mul_a1_mult_18_n419
*334 mul_a1_mult_18_n418
*335 mul_a1_mult_18_n417
*336 mul_a1_mult_18_n416
*337 mul_a1_mult_18_n415
*338 mul_a1_mult_18_n414
*339 mul_a1_mult_18_n228
*340 mul_a1_mult_18_n227
*341 mul_a1_mult_18_n226
*342 mul_a1_mult_18_n225
*343 mul_a1_mult_18_n224
*344 mul_a1_mult_18_n223
*345 mul_a1_mult_18_n222
*346 mul_a1_mult_18_n221
*347 mul_a1_mult_18_n220
*348 mul_a1_mult_18_n217
*349 mul_a1_mult_18_n216
*350 mul_a1_mult_18_n215
*351 mul_a1_mult_18_n214
*352 mul_a1_mult_18_n213
*353 mul_a1_mult_18_n212
*354 mul_a1_mult_18_n211
*355 mul_a1_mult_18_n210
*356 mul_a1_mult_18_n209
*357 mul_a1_mult_18_n208
*358 mul_a1_mult_18_n206
*359 mul_a1_mult_18_n205
*360 mul_a1_mult_18_n204
*361 mul_a1_mult_18_n203
*362 mul_a1_mult_18_n202
*363 mul_a1_mult_18_n201
*364 mul_a1_mult_18_n200
*365 mul_a1_mult_18_n199
*366 mul_a1_mult_18_n197
*367 mul_a1_mult_18_n196
*368 mul_a1_mult_18_n194
*369 mul_a1_mult_18_n193
*370 mul_a1_mult_18_n192
*371 mul_a1_mult_18_n191
*372 mul_a1_mult_18_n190
*373 mul_a1_mult_18_n189
*374 mul_a1_mult_18_n188
*375 mul_a1_mult_18_n187
*376 mul_a1_mult_18_n186
*377 mul_a1_mult_18_n185
*378 mul_a1_mult_18_n184
*379 mul_a1_mult_18_n182
*380 mul_a1_mult_18_n181
*381 mul_a1_mult_18_n180
*382 mul_a1_mult_18_n179
*383 mul_a1_mult_18_n177
*384 mul_a1_mult_18_n176
*385 mul_a1_mult_18_n175
*386 mul_a1_mult_18_n174
*387 mul_a1_mult_18_n173
*388 mul_a1_mult_18_n172
*389 mul_a1_mult_18_n170
*390 mul_a1_mult_18_n169
*391 mul_a1_mult_18_n168
*392 mul_a1_mult_18_n167
*393 mul_a1_mult_18_n166
*394 mul_a1_mult_18_n165
*395 mul_a1_mult_18_n164
*396 mul_a1_mult_18_n163
*397 mul_a1_mult_18_n162
*398 mul_a1_mult_18_n161
*399 mul_a1_mult_18_n160
*400 mul_a1_mult_18_n156
*401 mul_a1_mult_18_n155
*402 mul_a1_mult_18_n154
*403 mul_a1_mult_18_n153
*404 mul_a1_mult_18_n134
*405 mul_a1_mult_18_n133
*406 mul_a1_mult_18_n132
*407 mul_a1_mult_18_n131
*408 mul_a1_mult_18_n130
*409 mul_a1_mult_18_n129
*410 mul_a1_mult_18_n128
*411 mul_a1_mult_18_n127
*412 mul_a1_mult_18_n126
*413 mul_a1_mult_18_n125
*414 mul_a1_mult_18_n124
*415 mul_a1_mult_18_n123
*416 mul_a1_mult_18_n122
*417 mul_a1_mult_18_n121
*418 mul_a1_mult_18_n120
*419 mul_a1_mult_18_n119
*420 mul_a1_mult_18_n118
*421 mul_a1_mult_18_n117
*422 mul_a1_mult_18_n116
*423 mul_a1_mult_18_n115
*424 mul_a1_mult_18_n114
*425 mul_a1_mult_18_n113
*426 mul_a1_mult_18_n112
*427 mul_a1_mult_18_n111
*428 mul_a1_mult_18_n110
*429 mul_a1_mult_18_n109
*430 mul_a1_mult_18_n108
*431 mul_a1_mult_18_n107
*432 mul_a1_mult_18_n106
*433 mul_a1_mult_18_n105
*434 mul_a1_mult_18_n104
*435 mul_a1_mult_18_n103
*436 mul_a1_mult_18_n102
*437 mul_a1_mult_18_n101
*438 mul_a1_mult_18_n100
*439 mul_a1_mult_18_n99
*440 mul_a1_mult_18_n98
*441 mul_a1_mult_18_n97
*442 mul_a1_mult_18_n96
*443 mul_a1_mult_18_n95
*444 mul_a1_mult_18_n94
*445 mul_a1_mult_18_n93
*446 mul_a1_mult_18_n92
*447 mul_a1_mult_18_n91
*448 mul_a1_mult_18_n90
*449 mul_a1_mult_18_n89
*450 mul_a1_mult_18_n88
*451 mul_a1_mult_18_n87
*452 mul_a1_mult_18_n86
*453 mul_a1_mult_18_n85
*454 mul_a1_mult_18_n84
*455 mul_a1_mult_18_n83
*456 mul_a1_mult_18_n82
*457 mul_a1_mult_18_n81
*458 mul_a1_mult_18_n80
*459 mul_a1_mult_18_n79
*460 mul_a1_mult_18_n78
*461 mul_a1_mult_18_n77
*462 mul_a1_mult_18_n76
*463 mul_a1_mult_18_n75
*464 mul_a1_mult_18_n73
*465 mul_a1_mult_18_n72
*466 mul_a1_mult_18_n71
*467 mul_a1_mult_18_n70
*468 mul_a1_mult_18_n69
*469 mul_a1_mult_18_n68
*470 mul_a1_mult_18_n67
*471 mul_a1_mult_18_n66
*472 mul_a1_mult_18_n65
*473 mul_a1_mult_18_n64
*474 mul_a1_mult_18_n63
*475 mul_a1_mult_18_n62
*476 mul_a1_mult_18_n61
*477 mul_a1_mult_18_n60
*478 mul_a1_mult_18_n59
*479 mul_a1_mult_18_n58
*480 mul_a1_mult_18_n57
*481 mul_a1_mult_18_n55
*482 mul_a1_mult_18_n54
*483 mul_a1_mult_18_n53
*484 mul_a1_mult_18_n52
*485 mul_a1_mult_18_n51
*486 mul_a1_mult_18_n50
*487 mul_a1_mult_18_n49
*488 mul_a1_mult_18_n48
*489 mul_a1_mult_18_n47
*490 mul_a1_mult_18_n46
*491 mul_a1_mult_18_n45
*492 mul_a1_mult_18_n44
*493 mul_a1_mult_18_n43
*494 mul_a1_mult_18_n41
*495 mul_a1_mult_18_n40
*496 mul_a1_mult_18_n39
*497 mul_a1_mult_18_n38
*498 mul_a1_mult_18_n37
*499 mul_a1_mult_18_n36
*500 mul_a1_mult_18_n35
*501 mul_a1_mult_18_n34
*502 mul_a1_mult_18_n33
*503 mul_a1_mult_18_n31
*504 mul_a1_mult_18_n30
*505 mul_a1_mult_18_n29
*506 mul_a1_mult_18_n28
*507 mul_a1_mult_18_n27
*508 mul_a1_mult_18_n15
*509 mul_a1_mult_18_n14
*510 mul_a1_mult_18_n13
*511 mul_a1_mult_18_n12
*512 mul_a1_mult_18_n11
*513 mul_a1_mult_18_n10
*514 mul_a1_mult_18_n9
*515 mul_a1_mult_18_n8
*516 mul_a1_mult_18_n7
*517 mul_a1_mult_18_n6
*518 mul_a1_mult_18_n5
*519 mul_a1_mult_18_n4
*520 sub_fb_sub_18_n13
*521 sub_fb_sub_18_n12
*522 sub_fb_sub_18_n11
*523 sub_fb_sub_18_n10
*524 sub_fb_sub_18_n9
*525 sub_fb_sub_18_n8
*526 sub_fb_sub_18_n7
*527 sub_fb_sub_18_n6
*528 sub_fb_sub_18_n5
*529 sub_fb_sub_18_n4
*530 sub_fb_sub_18_n3
*531 sub_fb_sub_18_n2
*532 sub_fb_sub_18_n1
*533 reg_w_n36
*534 reg_w_n35
*535 reg_w_n34
*536 reg_w_n33
*537 reg_w_n32
*538 reg_w_n31
*539 reg_w_n30
*540 reg_w_n29
*541 reg_w_n28
*542 reg_w_n27
*543 reg_w_n26
*544 reg_w_n25
*545 reg_w_n24
*546 reg_w_n23
*547 reg_w_n22
*548 reg_w_n21
*549 reg_w_n20
*550 reg_w_n19
*551 reg_w_n18
*552 reg_w_n17
*553 reg_w_n16
*554 reg_w_n15
*555 reg_w_n14
*556 reg_w_n13
*557 reg_w_n12
*558 reg_w_n11
*559 reg_w_n10
*560 reg_w_n9
*561 reg_w_n8
*562 reg_w_n7
*563 reg_w_n6
*564 reg_w_n5
*565 reg_w_n4
*566 reg_w_n3
*567 reg_w_n2
*568 reg_w_n1
*569 mul_b1_P_0_
*570 mul_b1_P_23_
*571 mul_b1_mult_18_n554
*572 mul_b1_mult_18_n553
*573 mul_b1_mult_18_n552
*574 mul_b1_mult_18_n551
*575 mul_b1_mult_18_n550
*576 mul_b1_mult_18_n549
*577 mul_b1_mult_18_n548
*578 mul_b1_mult_18_n547
*579 mul_b1_mult_18_n546
*580 mul_b1_mult_18_n545
*581 mul_b1_mult_18_n544
*582 mul_b1_mult_18_n543
*583 mul_b1_mult_18_n542
*584 mul_b1_mult_18_n541
*585 mul_b1_mult_18_n540
*586 mul_b1_mult_18_n539
*587 mul_b1_mult_18_n538
*588 mul_b1_mult_18_n537
*589 mul_b1_mult_18_n536
*590 mul_b1_mult_18_n535
*591 mul_b1_mult_18_n534
*592 mul_b1_mult_18_n533
*593 mul_b1_mult_18_n532
*594 mul_b1_mult_18_n531
*595 mul_b1_mult_18_n530
*596 mul_b1_mult_18_n529
*597 mul_b1_mult_18_n528
*598 mul_b1_mult_18_n527
*599 mul_b1_mult_18_n526
*600 mul_b1_mult_18_n525
*601 mul_b1_mult_18_n524
*602 mul_b1_mult_18_n523
*603 mul_b1_mult_18_n522
*604 mul_b1_mult_18_n521
*605 mul_b1_mult_18_n520
*606 mul_b1_mult_18_n519
*607 mul_b1_mult_18_n518
*608 mul_b1_mult_18_n517
*609 mul_b1_mult_18_n516
*610 mul_b1_mult_18_n515
*611 mul_b1_mult_18_n514
*612 mul_b1_mult_18_n513
*613 mul_b1_mult_18_n512
*614 mul_b1_mult_18_n511
*615 mul_b1_mult_18_n510
*616 mul_b1_mult_18_n509
*617 mul_b1_mult_18_n508
*618 mul_b1_mult_18_n507
*619 mul_b1_mult_18_n506
*620 mul_b1_mult_18_n505
*621 mul_b1_mult_18_n504
*622 mul_b1_mult_18_n503
*623 mul_b1_mult_18_n502
*624 mul_b1_mult_18_n501
*625 mul_b1_mult_18_n500
*626 mul_b1_mult_18_n499
*627 mul_b1_mult_18_n498
*628 mul_b1_mult_18_n497
*629 mul_b1_mult_18_n496
*630 mul_b1_mult_18_n495
*631 mul_b1_mult_18_n494
*632 mul_b1_mult_18_n493
*633 mul_b1_mult_18_n492
*634 mul_b1_mult_18_n491
*635 mul_b1_mult_18_n490
*636 mul_b1_mult_18_n489
*637 mul_b1_mult_18_n488
*638 mul_b1_mult_18_n487
*639 mul_b1_mult_18_n486
*640 mul_b1_mult_18_n485
*641 mul_b1_mult_18_n484
*642 mul_b1_mult_18_n483
*643 mul_b1_mult_18_n482
*644 mul_b1_mult_18_n481
*645 mul_b1_mult_18_n480
*646 mul_b1_mult_18_n479
*647 mul_b1_mult_18_n478
*648 mul_b1_mult_18_n477
*649 mul_b1_mult_18_n476
*650 mul_b1_mult_18_n475
*651 mul_b1_mult_18_n474
*652 mul_b1_mult_18_n473
*653 mul_b1_mult_18_n472
*654 mul_b1_mult_18_n471
*655 mul_b1_mult_18_n470
*656 mul_b1_mult_18_n469
*657 mul_b1_mult_18_n468
*658 mul_b1_mult_18_n467
*659 mul_b1_mult_18_n466
*660 mul_b1_mult_18_n465
*661 mul_b1_mult_18_n464
*662 mul_b1_mult_18_n463
*663 mul_b1_mult_18_n462
*664 mul_b1_mult_18_n461
*665 mul_b1_mult_18_n460
*666 mul_b1_mult_18_n459
*667 mul_b1_mult_18_n458
*668 mul_b1_mult_18_n457
*669 mul_b1_mult_18_n456
*670 mul_b1_mult_18_n455
*671 mul_b1_mult_18_n454
*672 mul_b1_mult_18_n453
*673 mul_b1_mult_18_n452
*674 mul_b1_mult_18_n451
*675 mul_b1_mult_18_n450
*676 mul_b1_mult_18_n449
*677 mul_b1_mult_18_n448
*678 mul_b1_mult_18_n447
*679 mul_b1_mult_18_n446
*680 mul_b1_mult_18_n445
*681 mul_b1_mult_18_n444
*682 mul_b1_mult_18_n441
*683 mul_b1_mult_18_n440
*684 mul_b1_mult_18_n439
*685 mul_b1_mult_18_n438
*686 mul_b1_mult_18_n437
*687 mul_b1_mult_18_n436
*688 mul_b1_mult_18_n435
*689 mul_b1_mult_18_n434
*690 mul_b1_mult_18_n433
*691 mul_b1_mult_18_n432
*692 mul_b1_mult_18_n431
*693 mul_b1_mult_18_n430
*694 mul_b1_mult_18_n429
*695 mul_b1_mult_18_n428
*696 mul_b1_mult_18_n427
*697 mul_b1_mult_18_n426
*698 mul_b1_mult_18_n425
*699 mul_b1_mult_18_n424
*700 mul_b1_mult_18_n423
*701 mul_b1_mult_18_n422
*702 mul_b1_mult_18_n421
*703 mul_b1_mult_18_n420
*704 mul_b1_mult_18_n419
*705 mul_b1_mult_18_n418
*706 mul_b1_mult_18_n417
*707 mul_b1_mult_18_n416
*708 mul_b1_mult_18_n415
*709 mul_b1_mult_18_n414
*710 mul_b1_mult_18_n228
*711 mul_b1_mult_18_n227
*712 mul_b1_mult_18_n226
*713 mul_b1_mult_18_n225
*714 mul_b1_mult_18_n224
*715 mul_b1_mult_18_n223
*716 mul_b1_mult_18_n222
*717 mul_b1_mult_18_n221
*718 mul_b1_mult_18_n220
*719 mul_b1_mult_18_n217
*720 mul_b1_mult_18_n216
*721 mul_b1_mult_18_n215
*722 mul_b1_mult_18_n214
*723 mul_b1_mult_18_n213
*724 mul_b1_mult_18_n212
*725 mul_b1_mult_18_n211
*726 mul_b1_mult_18_n210
*727 mul_b1_mult_18_n209
*728 mul_b1_mult_18_n208
*729 mul_b1_mult_18_n206
*730 mul_b1_mult_18_n205
*731 mul_b1_mult_18_n204
*732 mul_b1_mult_18_n203
*733 mul_b1_mult_18_n202
*734 mul_b1_mult_18_n201
*735 mul_b1_mult_18_n200
*736 mul_b1_mult_18_n199
*737 mul_b1_mult_18_n197
*738 mul_b1_mult_18_n196
*739 mul_b1_mult_18_n194
*740 mul_b1_mult_18_n193
*741 mul_b1_mult_18_n192
*742 mul_b1_mult_18_n191
*743 mul_b1_mult_18_n190
*744 mul_b1_mult_18_n189
*745 mul_b1_mult_18_n188
*746 mul_b1_mult_18_n187
*747 mul_b1_mult_18_n186
*748 mul_b1_mult_18_n185
*749 mul_b1_mult_18_n184
*750 mul_b1_mult_18_n182
*751 mul_b1_mult_18_n181
*752 mul_b1_mult_18_n180
*753 mul_b1_mult_18_n179
*754 mul_b1_mult_18_n177
*755 mul_b1_mult_18_n176
*756 mul_b1_mult_18_n175
*757 mul_b1_mult_18_n174
*758 mul_b1_mult_18_n173
*759 mul_b1_mult_18_n172
*760 mul_b1_mult_18_n170
*761 mul_b1_mult_18_n169
*762 mul_b1_mult_18_n168
*763 mul_b1_mult_18_n167
*764 mul_b1_mult_18_n166
*765 mul_b1_mult_18_n165
*766 mul_b1_mult_18_n164
*767 mul_b1_mult_18_n163
*768 mul_b1_mult_18_n162
*769 mul_b1_mult_18_n161
*770 mul_b1_mult_18_n160
*771 mul_b1_mult_18_n156
*772 mul_b1_mult_18_n155
*773 mul_b1_mult_18_n154
*774 mul_b1_mult_18_n153
*775 mul_b1_mult_18_n134
*776 mul_b1_mult_18_n133
*777 mul_b1_mult_18_n132
*778 mul_b1_mult_18_n131
*779 mul_b1_mult_18_n130
*780 mul_b1_mult_18_n129
*781 mul_b1_mult_18_n128
*782 mul_b1_mult_18_n127
*783 mul_b1_mult_18_n126
*784 mul_b1_mult_18_n125
*785 mul_b1_mult_18_n124
*786 mul_b1_mult_18_n123
*787 mul_b1_mult_18_n122
*788 mul_b1_mult_18_n121
*789 mul_b1_mult_18_n120
*790 mul_b1_mult_18_n119
*791 mul_b1_mult_18_n118
*792 mul_b1_mult_18_n117
*793 mul_b1_mult_18_n116
*794 mul_b1_mult_18_n115
*795 mul_b1_mult_18_n114
*796 mul_b1_mult_18_n113
*797 mul_b1_mult_18_n112
*798 mul_b1_mult_18_n111
*799 mul_b1_mult_18_n110
*800 mul_b1_mult_18_n109
*801 mul_b1_mult_18_n108
*802 mul_b1_mult_18_n107
*803 mul_b1_mult_18_n106
*804 mul_b1_mult_18_n105
*805 mul_b1_mult_18_n104
*806 mul_b1_mult_18_n103
*807 mul_b1_mult_18_n102
*808 mul_b1_mult_18_n101
*809 mul_b1_mult_18_n100
*810 mul_b1_mult_18_n99
*811 mul_b1_mult_18_n98
*812 mul_b1_mult_18_n97
*813 mul_b1_mult_18_n96
*814 mul_b1_mult_18_n95
*815 mul_b1_mult_18_n94
*816 mul_b1_mult_18_n93
*817 mul_b1_mult_18_n92
*818 mul_b1_mult_18_n91
*819 mul_b1_mult_18_n90
*820 mul_b1_mult_18_n89
*821 mul_b1_mult_18_n88
*822 mul_b1_mult_18_n87
*823 mul_b1_mult_18_n86
*824 mul_b1_mult_18_n85
*825 mul_b1_mult_18_n84
*826 mul_b1_mult_18_n83
*827 mul_b1_mult_18_n82
*828 mul_b1_mult_18_n81
*829 mul_b1_mult_18_n80
*830 mul_b1_mult_18_n79
*831 mul_b1_mult_18_n78
*832 mul_b1_mult_18_n77
*833 mul_b1_mult_18_n76
*834 mul_b1_mult_18_n75
*835 mul_b1_mult_18_n73
*836 mul_b1_mult_18_n72
*837 mul_b1_mult_18_n71
*838 mul_b1_mult_18_n70
*839 mul_b1_mult_18_n69
*840 mul_b1_mult_18_n68
*841 mul_b1_mult_18_n67
*842 mul_b1_mult_18_n66
*843 mul_b1_mult_18_n65
*844 mul_b1_mult_18_n64
*845 mul_b1_mult_18_n63
*846 mul_b1_mult_18_n62
*847 mul_b1_mult_18_n61
*848 mul_b1_mult_18_n60
*849 mul_b1_mult_18_n59
*850 mul_b1_mult_18_n58
*851 mul_b1_mult_18_n57
*852 mul_b1_mult_18_n55
*853 mul_b1_mult_18_n54
*854 mul_b1_mult_18_n53
*855 mul_b1_mult_18_n52
*856 mul_b1_mult_18_n51
*857 mul_b1_mult_18_n50
*858 mul_b1_mult_18_n49
*859 mul_b1_mult_18_n48
*860 mul_b1_mult_18_n47
*861 mul_b1_mult_18_n46
*862 mul_b1_mult_18_n45
*863 mul_b1_mult_18_n44
*864 mul_b1_mult_18_n43
*865 mul_b1_mult_18_n41
*866 mul_b1_mult_18_n40
*867 mul_b1_mult_18_n39
*868 mul_b1_mult_18_n38
*869 mul_b1_mult_18_n37
*870 mul_b1_mult_18_n36
*871 mul_b1_mult_18_n35
*872 mul_b1_mult_18_n34
*873 mul_b1_mult_18_n33
*874 mul_b1_mult_18_n31
*875 mul_b1_mult_18_n30
*876 mul_b1_mult_18_n29
*877 mul_b1_mult_18_n28
*878 mul_b1_mult_18_n27
*879 mul_b1_mult_18_n15
*880 mul_b1_mult_18_n14
*881 mul_b1_mult_18_n13
*882 mul_b1_mult_18_n12
*883 mul_b1_mult_18_n11
*884 mul_b1_mult_18_n10
*885 mul_b1_mult_18_n9
*886 mul_b1_mult_18_n8
*887 mul_b1_mult_18_n7
*888 mul_b1_mult_18_n6
*889 mul_b1_mult_18_n5
*890 mul_b0_P_0_
*891 mul_b0_P_23_
*892 mul_b0_mult_18_n554
*893 mul_b0_mult_18_n553
*894 mul_b0_mult_18_n552
*895 mul_b0_mult_18_n551
*896 mul_b0_mult_18_n550
*897 mul_b0_mult_18_n549
*898 mul_b0_mult_18_n548
*899 mul_b0_mult_18_n547
*900 mul_b0_mult_18_n546
*901 mul_b0_mult_18_n545
*902 mul_b0_mult_18_n544
*903 mul_b0_mult_18_n543
*904 mul_b0_mult_18_n542
*905 mul_b0_mult_18_n541
*906 mul_b0_mult_18_n540
*907 mul_b0_mult_18_n539
*908 mul_b0_mult_18_n538
*909 mul_b0_mult_18_n537
*910 mul_b0_mult_18_n536
*911 mul_b0_mult_18_n535
*912 mul_b0_mult_18_n534
*913 mul_b0_mult_18_n533
*914 mul_b0_mult_18_n532
*915 mul_b0_mult_18_n531
*916 mul_b0_mult_18_n530
*917 mul_b0_mult_18_n529
*918 mul_b0_mult_18_n528
*919 mul_b0_mult_18_n527
*920 mul_b0_mult_18_n526
*921 mul_b0_mult_18_n525
*922 mul_b0_mult_18_n524
*923 mul_b0_mult_18_n523
*924 mul_b0_mult_18_n522
*925 mul_b0_mult_18_n521
*926 mul_b0_mult_18_n520
*927 mul_b0_mult_18_n519
*928 mul_b0_mult_18_n518
*929 mul_b0_mult_18_n517
*930 mul_b0_mult_18_n516
*931 mul_b0_mult_18_n515
*932 mul_b0_mult_18_n514
*933 mul_b0_mult_18_n513
*934 mul_b0_mult_18_n512
*935 mul_b0_mult_18_n511
*936 mul_b0_mult_18_n510
*937 mul_b0_mult_18_n509
*938 mul_b0_mult_18_n508
*939 mul_b0_mult_18_n507
*940 mul_b0_mult_18_n506
*941 mul_b0_mult_18_n505
*942 mul_b0_mult_18_n504
*943 mul_b0_mult_18_n503
*944 mul_b0_mult_18_n502
*945 mul_b0_mult_18_n501
*946 mul_b0_mult_18_n500
*947 mul_b0_mult_18_n499
*948 mul_b0_mult_18_n498
*949 mul_b0_mult_18_n497
*950 mul_b0_mult_18_n496
*951 mul_b0_mult_18_n495
*952 mul_b0_mult_18_n494
*953 mul_b0_mult_18_n493
*954 mul_b0_mult_18_n492
*955 mul_b0_mult_18_n491
*956 mul_b0_mult_18_n490
*957 mul_b0_mult_18_n489
*958 mul_b0_mult_18_n488
*959 mul_b0_mult_18_n487
*960 mul_b0_mult_18_n486
*961 mul_b0_mult_18_n485
*962 mul_b0_mult_18_n484
*963 mul_b0_mult_18_n483
*964 mul_b0_mult_18_n482
*965 mul_b0_mult_18_n481
*966 mul_b0_mult_18_n480
*967 mul_b0_mult_18_n479
*968 mul_b0_mult_18_n478
*969 mul_b0_mult_18_n477
*970 mul_b0_mult_18_n476
*971 mul_b0_mult_18_n475
*972 mul_b0_mult_18_n474
*973 mul_b0_mult_18_n473
*974 mul_b0_mult_18_n472
*975 mul_b0_mult_18_n471
*976 mul_b0_mult_18_n470
*977 mul_b0_mult_18_n469
*978 mul_b0_mult_18_n468
*979 mul_b0_mult_18_n467
*980 mul_b0_mult_18_n466
*981 mul_b0_mult_18_n465
*982 mul_b0_mult_18_n464
*983 mul_b0_mult_18_n463
*984 mul_b0_mult_18_n462
*985 mul_b0_mult_18_n461
*986 mul_b0_mult_18_n460
*987 mul_b0_mult_18_n459
*988 mul_b0_mult_18_n458
*989 mul_b0_mult_18_n457
*990 mul_b0_mult_18_n456
*991 mul_b0_mult_18_n455
*992 mul_b0_mult_18_n454
*993 mul_b0_mult_18_n453
*994 mul_b0_mult_18_n452
*995 mul_b0_mult_18_n451
*996 mul_b0_mult_18_n450
*997 mul_b0_mult_18_n449
*998 mul_b0_mult_18_n448
*999 mul_b0_mult_18_n447
*1000 mul_b0_mult_18_n446
*1001 mul_b0_mult_18_n445
*1002 mul_b0_mult_18_n444
*1003 mul_b0_mult_18_n443
*1004 mul_b0_mult_18_n442
*1005 mul_b0_mult_18_n441
*1006 mul_b0_mult_18_n440
*1007 mul_b0_mult_18_n439
*1008 mul_b0_mult_18_n438
*1009 mul_b0_mult_18_n437
*1010 mul_b0_mult_18_n436
*1011 mul_b0_mult_18_n435
*1012 mul_b0_mult_18_n434
*1013 mul_b0_mult_18_n433
*1014 mul_b0_mult_18_n432
*1015 mul_b0_mult_18_n431
*1016 mul_b0_mult_18_n430
*1017 mul_b0_mult_18_n429
*1018 mul_b0_mult_18_n428
*1019 mul_b0_mult_18_n427
*1020 mul_b0_mult_18_n426
*1021 mul_b0_mult_18_n425
*1022 mul_b0_mult_18_n424
*1023 mul_b0_mult_18_n423
*1024 mul_b0_mult_18_n422
*1025 mul_b0_mult_18_n421
*1026 mul_b0_mult_18_n420
*1027 mul_b0_mult_18_n419
*1028 mul_b0_mult_18_n418
*1029 mul_b0_mult_18_n417
*1030 mul_b0_mult_18_n416
*1031 mul_b0_mult_18_n415
*1032 mul_b0_mult_18_n414
*1033 mul_b0_mult_18_n228
*1034 mul_b0_mult_18_n227
*1035 mul_b0_mult_18_n226
*1036 mul_b0_mult_18_n225
*1037 mul_b0_mult_18_n224
*1038 mul_b0_mult_18_n223
*1039 mul_b0_mult_18_n222
*1040 mul_b0_mult_18_n221
*1041 mul_b0_mult_18_n220
*1042 mul_b0_mult_18_n217
*1043 mul_b0_mult_18_n216
*1044 mul_b0_mult_18_n215
*1045 mul_b0_mult_18_n214
*1046 mul_b0_mult_18_n213
*1047 mul_b0_mult_18_n212
*1048 mul_b0_mult_18_n211
*1049 mul_b0_mult_18_n210
*1050 mul_b0_mult_18_n209
*1051 mul_b0_mult_18_n208
*1052 mul_b0_mult_18_n206
*1053 mul_b0_mult_18_n205
*1054 mul_b0_mult_18_n204
*1055 mul_b0_mult_18_n203
*1056 mul_b0_mult_18_n202
*1057 mul_b0_mult_18_n201
*1058 mul_b0_mult_18_n200
*1059 mul_b0_mult_18_n199
*1060 mul_b0_mult_18_n197
*1061 mul_b0_mult_18_n196
*1062 mul_b0_mult_18_n194
*1063 mul_b0_mult_18_n193
*1064 mul_b0_mult_18_n192
*1065 mul_b0_mult_18_n191
*1066 mul_b0_mult_18_n190
*1067 mul_b0_mult_18_n189
*1068 mul_b0_mult_18_n188
*1069 mul_b0_mult_18_n187
*1070 mul_b0_mult_18_n186
*1071 mul_b0_mult_18_n185
*1072 mul_b0_mult_18_n184
*1073 mul_b0_mult_18_n182
*1074 mul_b0_mult_18_n181
*1075 mul_b0_mult_18_n180
*1076 mul_b0_mult_18_n179
*1077 mul_b0_mult_18_n177
*1078 mul_b0_mult_18_n176
*1079 mul_b0_mult_18_n175
*1080 mul_b0_mult_18_n174
*1081 mul_b0_mult_18_n173
*1082 mul_b0_mult_18_n172
*1083 mul_b0_mult_18_n170
*1084 mul_b0_mult_18_n169
*1085 mul_b0_mult_18_n168
*1086 mul_b0_mult_18_n167
*1087 mul_b0_mult_18_n166
*1088 mul_b0_mult_18_n165
*1089 mul_b0_mult_18_n164
*1090 mul_b0_mult_18_n163
*1091 mul_b0_mult_18_n162
*1092 mul_b0_mult_18_n161
*1093 mul_b0_mult_18_n160
*1094 mul_b0_mult_18_n156
*1095 mul_b0_mult_18_n155
*1096 mul_b0_mult_18_n154
*1097 mul_b0_mult_18_n153
*1098 mul_b0_mult_18_n134
*1099 mul_b0_mult_18_n133
*1100 mul_b0_mult_18_n132
*1101 mul_b0_mult_18_n131
*1102 mul_b0_mult_18_n130
*1103 mul_b0_mult_18_n129
*1104 mul_b0_mult_18_n128
*1105 mul_b0_mult_18_n127
*1106 mul_b0_mult_18_n126
*1107 mul_b0_mult_18_n125
*1108 mul_b0_mult_18_n124
*1109 mul_b0_mult_18_n123
*1110 mul_b0_mult_18_n122
*1111 mul_b0_mult_18_n121
*1112 mul_b0_mult_18_n120
*1113 mul_b0_mult_18_n119
*1114 mul_b0_mult_18_n118
*1115 mul_b0_mult_18_n117
*1116 mul_b0_mult_18_n116
*1117 mul_b0_mult_18_n115
*1118 mul_b0_mult_18_n114
*1119 mul_b0_mult_18_n113
*1120 mul_b0_mult_18_n112
*1121 mul_b0_mult_18_n111
*1122 mul_b0_mult_18_n110
*1123 mul_b0_mult_18_n109
*1124 mul_b0_mult_18_n108
*1125 mul_b0_mult_18_n107
*1126 mul_b0_mult_18_n106
*1127 mul_b0_mult_18_n105
*1128 mul_b0_mult_18_n104
*1129 mul_b0_mult_18_n103
*1130 mul_b0_mult_18_n102
*1131 mul_b0_mult_18_n101
*1132 mul_b0_mult_18_n100
*1133 mul_b0_mult_18_n99
*1134 mul_b0_mult_18_n98
*1135 mul_b0_mult_18_n97
*1136 mul_b0_mult_18_n96
*1137 mul_b0_mult_18_n95
*1138 mul_b0_mult_18_n94
*1139 mul_b0_mult_18_n93
*1140 mul_b0_mult_18_n92
*1141 mul_b0_mult_18_n91
*1142 mul_b0_mult_18_n90
*1143 mul_b0_mult_18_n89
*1144 mul_b0_mult_18_n88
*1145 mul_b0_mult_18_n87
*1146 mul_b0_mult_18_n86
*1147 mul_b0_mult_18_n85
*1148 mul_b0_mult_18_n84
*1149 mul_b0_mult_18_n83
*1150 mul_b0_mult_18_n82
*1151 mul_b0_mult_18_n81
*1152 mul_b0_mult_18_n80
*1153 mul_b0_mult_18_n79
*1154 mul_b0_mult_18_n78
*1155 mul_b0_mult_18_n77
*1156 mul_b0_mult_18_n76
*1157 mul_b0_mult_18_n75
*1158 mul_b0_mult_18_n73
*1159 mul_b0_mult_18_n72
*1160 mul_b0_mult_18_n71
*1161 mul_b0_mult_18_n70
*1162 mul_b0_mult_18_n69
*1163 mul_b0_mult_18_n68
*1164 mul_b0_mult_18_n67
*1165 mul_b0_mult_18_n66
*1166 mul_b0_mult_18_n65
*1167 mul_b0_mult_18_n64
*1168 mul_b0_mult_18_n63
*1169 mul_b0_mult_18_n62
*1170 mul_b0_mult_18_n61
*1171 mul_b0_mult_18_n60
*1172 mul_b0_mult_18_n59
*1173 mul_b0_mult_18_n58
*1174 mul_b0_mult_18_n57
*1175 mul_b0_mult_18_n55
*1176 mul_b0_mult_18_n54
*1177 mul_b0_mult_18_n53
*1178 mul_b0_mult_18_n52
*1179 mul_b0_mult_18_n51
*1180 mul_b0_mult_18_n50
*1181 mul_b0_mult_18_n49
*1182 mul_b0_mult_18_n48
*1183 mul_b0_mult_18_n47
*1184 mul_b0_mult_18_n46
*1185 mul_b0_mult_18_n45
*1186 mul_b0_mult_18_n44
*1187 mul_b0_mult_18_n43
*1188 mul_b0_mult_18_n41
*1189 mul_b0_mult_18_n40
*1190 mul_b0_mult_18_n39
*1191 mul_b0_mult_18_n38
*1192 mul_b0_mult_18_n37
*1193 mul_b0_mult_18_n36
*1194 mul_b0_mult_18_n35
*1195 mul_b0_mult_18_n34
*1196 mul_b0_mult_18_n33
*1197 mul_b0_mult_18_n31
*1198 mul_b0_mult_18_n30
*1199 mul_b0_mult_18_n29
*1200 mul_b0_mult_18_n28
*1201 mul_b0_mult_18_n27
*1202 mul_b0_mult_18_n15
*1203 mul_b0_mult_18_n14
*1204 mul_b0_mult_18_n13
*1205 mul_b0_mult_18_n12
*1206 mul_b0_mult_18_n11
*1207 mul_b0_mult_18_n10
*1208 mul_b0_mult_18_n9
*1209 mul_b0_mult_18_n8
*1210 mul_b0_mult_18_n7
*1211 mul_b0_mult_18_n6
*1212 mul_b0_mult_18_n5
*1213 a_Y_add_18_n2
*1214 reg_DOUT_n68
*1215 reg_DOUT_n67
*1216 reg_DOUT_n66
*1217 reg_DOUT_n65
*1218 reg_DOUT_n64
*1219 reg_DOUT_n63
*1220 reg_DOUT_n62
*1221 reg_DOUT_n61
*1222 reg_DOUT_n60
*1223 reg_DOUT_n59
*1224 reg_DOUT_n58
*1225 reg_DOUT_n57
*1226 reg_DOUT_n56
*1227 reg_DOUT_n55
*1228 reg_DOUT_n54
*1229 reg_DOUT_n53
*1230 reg_DOUT_n52
*1231 reg_DOUT_n51
*1232 reg_DOUT_n50
*1233 reg_DOUT_n49
*1234 reg_DOUT_n48
*1235 reg_DOUT_n47
*1236 reg_DOUT_n46
*1237 reg_DOUT_n45
*1238 reg_DOUT_n44
*1239 reg_DOUT_n43
*1240 reg_DOUT_n42
*1241 reg_DOUT_n41
*1242 reg_DOUT_n40
*1243 reg_DOUT_n39
*1244 reg_DOUT_n38
*1245 reg_DOUT_n37
*1246 reg_DOUT_n36
*1247 FF_VOUT_FD_0_n3
*1248 FF_VOUT_FD_0_n2
*1249 FF_VOUT_FD_0_n1
*1250 FF_VOUT_FD_1_n5
*1251 FF_VOUT_FD_1_n4
*1252 DIN_int[10]
*1253 DIN_int[9]
*1254 DIN_int[8]
*1255 DIN_int[7]
*1256 DIN_int[6]
*1257 DIN_int[5]
*1258 DIN_int[4]
*1259 DIN_int[3]
*1260 DIN_int[2]
*1261 DIN_int[1]
*1262 DIN_int[0]
*1263 a1_int[10]
*1264 a1_int[9]
*1265 a1_int[8]
*1266 a1_int[7]
*1267 a1_int[6]
*1268 a1_int[5]
*1269 a1_int[4]
*1270 a1_int[3]
*1271 a1_int[2]
*1272 a1_int[1]
*1273 a1_int[0]
*1274 b1_int[10]
*1275 b1_int[9]
*1276 b1_int[8]
*1277 b1_int[7]
*1278 b1_int[6]
*1279 b1_int[5]
*1280 b1_int[4]
*1281 b1_int[3]
*1282 b1_int[2]
*1283 b1_int[1]
*1284 b1_int[0]
*1285 b0_int[10]
*1286 b0_int[9]
*1287 b0_int[8]
*1288 b0_int[7]
*1289 b0_int[6]
*1290 b0_int[5]
*1291 b0_int[4]
*1292 b0_int[3]
*1293 b0_int[2]
*1294 b0_int[1]
*1295 b0_int[0]
*1296 sw[11]
*1297 sw[10]
*1298 sw[9]
*1299 sw[8]
*1300 sw[7]
*1301 sw[6]
*1302 sw[5]
*1303 sw[4]
*1304 sw[3]
*1305 sw[2]
*1306 sw[1]
*1307 sw[0]
*1308 fb_temp[21]
*1309 fb_temp[20]
*1310 fb_temp[19]
*1311 fb_temp[18]
*1312 fb_temp[17]
*1313 fb_temp[16]
*1314 fb_temp[15]
*1315 fb_temp[14]
*1316 fb_temp[13]
*1317 fb_temp[12]
*1318 fb_temp[11]
*1319 fb_temp[10]
*1320 w[11]
*1321 w[10]
*1322 w[9]
*1323 w[8]
*1324 w[7]
*1325 w[6]
*1326 w[5]
*1327 w[4]
*1328 w[3]