*SPEF "IEEE 1481-1998"
*DESIGN "Filter"
*DATE "Sat Nov  7 11:44:26 2020"
*VENDOR "Cadence Design Systems, Inc."
*PROGRAM "Innovus"
*VERSION "17.11-s080_1"
*DESIGN_FLOW "COUPLING C" "PIN_CAP NONE" "NAME_SCOPE LOCAL"
*DIVIDER /
*DELIMITER :
*BUS_DELIMITER []
*T_UNIT 1 NS
*C_UNIT 1 PF
*R_UNIT 1 OHM
*L_UNIT 1 HENRY

// MMMC spef file for corner 'my_rc'

*NAME_MAP

*1 FE_OFN10_RST_n
*2 FE_OFN9_RST_n
*3 FE_OFN8_RST_n
*4 FE_OFN7_VIN
*5 FE_OFN6_VIN
*6 FE_OFN5_VIN
*7 FE_OFN4_w_del_0
*8 FE_OFN3_VIN_del_2
*9 FE_OFN2_VIN_del_1
*10 FE_OFN1_VIN_del_0
*11 FE_OFN0_VIN_del_0
*12 FE_DBTN1_w_del_0
*13 FE_DBTN0_w_del_1
*14 DIN[10]
*15 DIN[9]
*16 DIN[8]
*17 DIN[7]
*18 DIN[6]
*19 DIN[5]
*20 DIN[4]
*21 DIN[3]
*22 DIN[2]
*23 DIN[1]
*24 DIN[0]
*25 b0[10]
*26 b0[9]
*27 b0[8]
*28 b0[7]
*29 b0[6]
*30 b0[5]
*31 b0[4]
*32 b0[3]
*33 b0[2]
*34 b0[1]
*35 b0[0]
*36 c0[10]
*37 c0[9]
*38 c0[8]
*39 c0[7]
*40 c0[6]
*41 c0[5]
*42 c0[4]
*43 c0[3]
*44 c0[2]
*45 c0[1]
*46 c0[0]
*47 c1[10]
*48 c1[9]
*49 c1[8]
*50 c1[7]
*51 c1[6]
*52 c1[5]
*53 c1[4]
*54 c1[3]
*55 c1[2]
*56 c1[1]
*57 c1[0]
*58 c2[10]
*59 c2[9]
*60 c2[8]
*61 c2[7]
*62 c2[6]
*63 c2[5]
*64 c2[4]
*65 c2[3]
*66 c2[2]
*67 c2[1]
*68 c2[0]
*69 DOUT[10]
*70 DOUT[9]
*71 DOUT[8]
*72 DOUT[7]
*73 DOUT[6]
*74 DOUT[5]
*75 DOUT[4]
*76 DOUT[3]
*77 DOUT[2]
*78 DOUT[1]
*79 DOUT[0]
*80 VIN
*81 RST_n
*82 CLK
*83 VOUT
*84 reg_DIN_n33
*85 reg_DIN_n32
*86 reg_DIN_n31
*87 reg_DIN_n30
*88 reg_DIN_n29
*89 reg_DIN_n28
*90 reg_DIN_n27
*91 reg_DIN_n26
*92 reg_DIN_n25
*93 reg_DIN_n24
*94 reg_DIN_n23
*95 reg_DIN_n22
*96 reg_DIN_n21
*97 reg_DIN_n20
*98 reg_DIN_n19
*99 reg_DIN_n18
*100 reg_DIN_n17
*101 reg_DIN_n16
*102 reg_DIN_n15
*103 reg_DIN_n14
*104 reg_DIN_n13
*105 reg_DIN_n12
*106 reg_DIN_n11
*107 reg_DIN_n10
*108 reg_DIN_n9
*109 reg_DIN_n8
*110 reg_DIN_n7
*111 reg_DIN_n6
*112 reg_DIN_n5
*113 reg_DIN_n4
*114 reg_DIN_n3
*115 reg_DIN_n2
*116 reg_DIN_n1
*117 reg_c0_n68
*118 reg_c0_n67
*119 reg_c0_n66
*120 reg_c0_n65
*121 reg_c0_n64
*122 reg_c0_n63
*123 reg_c0_n62
*124 reg_c0_n61
*125 reg_c0_n60
*126 reg_c0_n59
*127 reg_c0_n58
*128 reg_c0_n57
*129 reg_c0_n56
*130 reg_c0_n55
*131 reg_c0_n54
*132 reg_c0_n53
*133 reg_c0_n52
*134 reg_c0_n51
*135 reg_c0_n50
*136 reg_c0_n49
*137 reg_c0_n48
*138 reg_c0_n47
*139 reg_c0_n46
*140 reg_c0_n45
*141 reg_c0_n44
*142 reg_c0_n43
*143 reg_c0_n42
*144 reg_c0_n41
*145 reg_c0_n40
*146 reg_c0_n39
*147 reg_c0_n38
*148 reg_c0_n37
*149 reg_c0_n36
*150 reg_c1_n68
*151 reg_c1_n67
*152 reg_c1_n66
*153 reg_c1_n65
*154 reg_c1_n64
*155 reg_c1_n63
*156 reg_c1_n62
*157 reg_c1_n61
*158 reg_c1_n60
*159 reg_c1_n59
*160 reg_c1_n58
*161 reg_c1_n57
*162 reg_c1_n56
*163 reg_c1_n55
*164 reg_c1_n54
*165 reg_c1_n53
*166 reg_c1_n52
*167 reg_c1_n51
*168 reg_c1_n50
*169 reg_c1_n49
*170 reg_c1_n48
*171 reg_c1_n47
*172 reg_c1_n46
*173 reg_c1_n45
*174 reg_c1_n44
*175 reg_c1_n43
*176 reg_c1_n42
*177 reg_c1_n41
*178 reg_c1_n40
*179 reg_c1_n39
*180 reg_c1_n38
*181 reg_c1_n37
*182 reg_c1_n36
*183 reg_c2_n68
*184 reg_c2_n67
*185 reg_c2_n66
*186 reg_c2_n65
*187 reg_c2_n64
*188 reg_c2_n63
*189 reg_c2_n62
*190 reg_c2_n61
*191 reg_c2_n60
*192 reg_c2_n59
*193 reg_c2_n58
*194 reg_c2_n57
*195 reg_c2_n56
*196 reg_c2_n55
*197 reg_c2_n54
*198 reg_c2_n53
*199 reg_c2_n52
*200 reg_c2_n51
*201 reg_c2_n50
*202 reg_c2_n49
*203 reg_c2_n48
*204 reg_c2_n47
*205 reg_c2_n46
*206 reg_c2_n45
*207 reg_c2_n44
*208 reg_c2_n43
*209 reg_c2_n42
*210 reg_c2_n41
*211 reg_c2_n40
*212 reg_c2_n39
*213 reg_c2_n38
*214 reg_c2_n37
*215 reg_c2_n36
*216 reg_b0_n68
*217 reg_b0_n67
*218 reg_b0_n66
*219 reg_b0_n65
*220 reg_b0_n64
*221 reg_b0_n63
*222 reg_b0_n62
*223 reg_b0_n61
*224 reg_b0_n60
*225 reg_b0_n59
*226 reg_b0_n58
*227 reg_b0_n57
*228 reg_b0_n56
*229 reg_b0_n55
*230 reg_b0_n54
*231 reg_b0_n53
*232 reg_b0_n52
*233 reg_b0_n51
*234 reg_b0_n50
*235 reg_b0_n49
*236 reg_b0_n48
*237 reg_b0_n47
*238 reg_b0_n46
*239 reg_b0_n45
*240 reg_b0_n44
*241 reg_b0_n43
*242 reg_b0_n42
*243 reg_b0_n41
*244 reg_b0_n40
*245 reg_b0_n39
*246 reg_b0_n38
*247 reg_b0_n37
*248 reg_b0_n36
*249 mul_w_c2_P_0_
*250 mul_w_c2_P_23_
*251 mul_w_c2_mult_18_n553
*252 mul_w_c2_mult_18_n552
*253 mul_w_c2_mult_18_n551
*254 mul_w_c2_mult_18_n550
*255 mul_w_c2_mult_18_n549
*256 mul_w_c2_mult_18_n548
*257 mul_w_c2_mult_18_n547
*258 mul_w_c2_mult_18_n546
*259 mul_w_c2_mult_18_n545
*260 mul_w_c2_mult_18_n544
*261 mul_w_c2_mult_18_n543
*262 mul_w_c2_mult_18_n542
*263 mul_w_c2_mult_18_n541
*264 mul_w_c2_mult_18_n540
*265 mul_w_c2_mult_18_n539
*266 mul_w_c2_mult_18_n538
*267 mul_w_c2_mult_18_n537
*268 mul_w_c2_mult_18_n536
*269 mul_w_c2_mult_18_n535
*270 mul_w_c2_mult_18_n534
*271 mul_w_c2_mult_18_n533
*272 mul_w_c2_mult_18_n532
*273 mul_w_c2_mult_18_n531
*274 mul_w_c2_mult_18_n530
*275 mul_w_c2_mult_18_n529
*276 mul_w_c2_mult_18_n528
*277 mul_w_c2_mult_18_n527
*278 mul_w_c2_mult_18_n526
*279 mul_w_c2_mult_18_n525
*280 mul_w_c2_mult_18_n524
*281 mul_w_c2_mult_18_n523
*282 mul_w_c2_mult_18_n522
*283 mul_w_c2_mult_18_n521
*284 mul_w_c2_mult_18_n520
*285 mul_w_c2_mult_18_n519
*286 mul_w_c2_mult_18_n518
*287 mul_w_c2_mult_18_n517
*288 mul_w_c2_mult_18_n516
*289 mul_w_c2_mult_18_n515
*290 mul_w_c2_mult_18_n514
*291 mul_w_c2_mult_18_n513
*292 mul_w_c2_mult_18_n512
*293 mul_w_c2_mult_18_n511
*294 mul_w_c2_mult_18_n510
*295 mul_w_c2_mult_18_n509
*296 mul_w_c2_mult_18_n508
*297 mul_w_c2_mult_18_n507
*298 mul_w_c2_mult_18_n506
*299 mul_w_c2_mult_18_n505
*300 mul_w_c2_mult_18_n504
*301 mul_w_c2_mult_18_n503
*302 mul_w_c2_mult_18_n502
*303 mul_w_c2_mult_18_n501
*304 mul_w_c2_mult_18_n500
*305 mul_w_c2_mult_18_n499
*306 mul_w_c2_mult_18_n498
*307 mul_w_c2_mult_18_n497
*308 mul_w_c2_mult_18_n496
*309 mul_w_c2_mult_18_n495
*310 mul_w_c2_mult_18_n494
*311 mul_w_c2_mult_18_n493
*312 mul_w_c2_mult_18_n492
*313 mul_w_c2_mult_18_n491
*314 mul_w_c2_mult_18_n490
*315 mul_w_c2_mult_18_n489
*316 mul_w_c2_mult_18_n488
*317 mul_w_c2_mult_18_n487
*318 mul_w_c2_mult_18_n486
*319 mul_w_c2_mult_18_n485
*320 mul_w_c2_mult_18_n484
*321 mul_w_c2_mult_18_n483
*322 mul_w_c2_mult_18_n482
*323 mul_w_c2_mult_18_n481
*324 mul_w_c2_mult_18_n480
*325 mul_w_c2_mult_18_n479
*326 mul_w_c2_mult_18_n478
*327 mul_w_c2_mult_18_n477
*328 mul_w_c2_mult_18_n476
*329 mul_w_c2_mult_18_n475
*330 mul_w_c2_mult_18_n474
*331 mul_w_c2_mult_18_n473
*332 mul_w_c2_mult_18_n472
*333 mul_w_c2_mult_18_n471
*334 mul_w_c2_mult_18_n470
*335 mul_w_c2_mult_18_n469
*336 mul_w_c2_mult_18_n468
*337 mul_w_c2_mult_18_n467
*338 mul_w_c2_mult_18_n466
*339 mul_w_c2_mult_18_n465
*340 mul_w_c2_mult_18_n464
*341 mul_w_c2_mult_18_n463
*342 mul_w_c2_mult_18_n462
*343 mul_w_c2_mult_18_n461
*344 mul_w_c2_mult_18_n460
*345 mul_w_c2_mult_18_n459
*346 mul_w_c2_mult_18_n458
*347 mul_w_c2_mult_18_n457
*348 mul_w_c2_mult_18_n456
*349 mul_w_c2_mult_18_n455
*350 mul_w_c2_mult_18_n454
*351 mul_w_c2_mult_18_n453
*352 mul_w_c2_mult_18_n452
*353 mul_w_c2_mult_18_n451
*354 mul_w_c2_mult_18_n450
*355 mul_w_c2_mult_18_n449
*356 mul_w_c2_mult_18_n448
*357 mul_w_c2_mult_18_n447
*358 mul_w_c2_mult_18_n446
*359 mul_w_c2_mult_18_n445
*360 mul_w_c2_mult_18_n444
*361 mul_w_c2_mult_18_n443
*362 mul_w_c2_mult_18_n442
*363 mul_w_c2_mult_18_n441
*364 mul_w_c2_mult_18_n440
*365 mul_w_c2_mult_18_n439
*366 mul_w_c2_mult_18_n438
*367 mul_w_c2_mult_18_n437
*368 mul_w_c2_mult_18_n434
*369 mul_w_c2_mult_18_n433
*370 mul_w_c2_mult_18_n432
*371 mul_w_c2_mult_18_n431
*372 mul_w_c2_mult_18_n430
*373 mul_w_c2_mult_18_n429
*374 mul_w_c2_mult_18_n428
*375 mul_w_c2_mult_18_n427
*376 mul_w_c2_mult_18_n426
*377 mul_w_c2_mult_18_n425
*378 mul_w_c2_mult_18_n424
*379 mul_w_c2_mult_18_n423
*380 mul_w_c2_mult_18_n422
*381 mul_w_c2_mult_18_n421
*382 mul_w_c2_mult_18_n420
*383 mul_w_c2_mult_18_n419
*384 mul_w_c2_mult_18_n418
*385 mul_w_c2_mult_18_n417
*386 mul_w_c2_mult_18_n416
*387 mul_w_c2_mult_18_n415
*388 mul_w_c2_mult_18_n414
*389 mul_w_c2_mult_18_n228
*390 mul_w_c2_mult_18_n227
*391 mul_w_c2_mult_18_n226
*392 mul_w_c2_mult_18_n225
*393 mul_w_c2_mult_18_n224
*394 mul_w_c2_mult_18_n223
*395 mul_w_c2_mult_18_n222
*396 mul_w_c2_mult_18_n221
*397 mul_w_c2_mult_18_n220
*398 mul_w_c2_mult_18_n217
*399 mul_w_c2_mult_18_n216
*400 mul_w_c2_mult_18_n215
*401 mul_w_c2_mult_18_n214
*402 mul_w_c2_mult_18_n213
*403 mul_w_c2_mult_18_n212
*404 mul_w_c2_mult_18_n211
*405 mul_w_c2_mult_18_n210
*406 mul_w_c2_mult_18_n209
*407 mul_w_c2_mult_18_n208
*408 mul_w_c2_mult_18_n206
*409 mul_w_c2_mult_18_n205
*410 mul_w_c2_mult_18_n204
*411 mul_w_c2_mult_18_n203
*412 mul_w_c2_mult_18_n202
*413 mul_w_c2_mult_18_n201
*414 mul_w_c2_mult_18_n200
*415 mul_w_c2_mult_18_n199
*416 mul_w_c2_mult_18_n197
*417 mul_w_c2_mult_18_n196
*418 mul_w_c2_mult_18_n194
*419 mul_w_c2_mult_18_n193
*420 mul_w_c2_mult_18_n192
*421 mul_w_c2_mult_18_n191
*422 mul_w_c2_mult_18_n190
*423 mul_w_c2_mult_18_n189
*424 mul_w_c2_mult_18_n188
*425 mul_w_c2_mult_18_n187
*426 mul_w_c2_mult_18_n186
*427 mul_w_c2_mult_18_n185
*428 mul_w_c2_mult_18_n184
*429 mul_w_c2_mult_18_n182
*430 mul_w_c2_mult_18_n181
*431 mul_w_c2_mult_18_n180
*432 mul_w_c2_mult_18_n179
*433 mul_w_c2_mult_18_n177
*434 mul_w_c2_mult_18_n176
*435 mul_w_c2_mult_18_n175
*436 mul_w_c2_mult_18_n174
*437 mul_w_c2_mult_18_n173
*438 mul_w_c2_mult_18_n172
*439 mul_w_c2_mult_18_n170
*440 mul_w_c2_mult_18_n169
*441 mul_w_c2_mult_18_n168
*442 mul_w_c2_mult_18_n167
*443 mul_w_c2_mult_18_n166
*444 mul_w_c2_mult_18_n165
*445 mul_w_c2_mult_18_n164
*446 mul_w_c2_mult_18_n163
*447 mul_w_c2_mult_18_n162
*448 mul_w_c2_mult_18_n161
*449 mul_w_c2_mult_18_n160
*450 mul_w_c2_mult_18_n156
*451 mul_w_c2_mult_18_n155
*452 mul_w_c2_mult_18_n154
*453 mul_w_c2_mult_18_n153
*454 mul_w_c2_mult_18_n134
*455 mul_w_c2_mult_18_n133
*456 mul_w_c2_mult_18_n132
*457 mul_w_c2_mult_18_n131
*458 mul_w_c2_mult_18_n130
*459 mul_w_c2_mult_18_n129
*460 mul_w_c2_mult_18_n128
*461 mul_w_c2_mult_18_n127
*462 mul_w_c2_mult_18_n126
*463 mul_w_c2_mult_18_n125
*464 mul_w_c2_mult_18_n124
*465 mul_w_c2_mult_18_n123
*466 mul_w_c2_mult_18_n122
*467 mul_w_c2_mult_18_n121
*468 mul_w_c2_mult_18_n120
*469 mul_w_c2_mult_18_n119
*470 mul_w_c2_mult_18_n118
*471 mul_w_c2_mult_18_n117
*472 mul_w_c2_mult_18_n116
*473 mul_w_c2_mult_18_n115
*474 mul_w_c2_mult_18_n114
*475 mul_w_c2_mult_18_n113
*476 mul_w_c2_mult_18_n112
*477 mul_w_c2_mult_18_n111
*478 mul_w_c2_mult_18_n110
*479 mul_w_c2_mult_18_n109
*480 mul_w_c2_mult_18_n108
*481 mul_w_c2_mult_18_n107
*482 mul_w_c2_mult_18_n106
*483 mul_w_c2_mult_18_n105
*484 mul_w_c2_mult_18_n104
*485 mul_w_c2_mult_18_n103
*486 mul_w_c2_mult_18_n102
*487 mul_w_c2_mult_18_n101
*488 mul_w_c2_mult_18_n100
*489 mul_w_c2_mult_18_n99
*490 mul_w_c2_mult_18_n98
*491 mul_w_c2_mult_18_n97
*492 mul_w_c2_mult_18_n96
*493 mul_w_c2_mult_18_n95
*494 mul_w_c2_mult_18_n94
*495 mul_w_c2_mult_18_n93
*496 mul_w_c2_mult_18_n92
*497 mul_w_c2_mult_18_n91
*498 mul_w_c2_mult_18_n90
*499 mul_w_c2_mult_18_n89
*500 mul_w_c2_mult_18_n88
*501 mul_w_c2_mult_18_n87
*502 mul_w_c2_mult_18_n86
*503 mul_w_c2_mult_18_n85
*504 mul_w_c2_mult_18_n84
*505 mul_w_c2_mult_18_n83
*506 mul_w_c2_mult_18_n82
*507 mul_w_c2_mult_18_n81
*508 mul_w_c2_mult_18_n80
*509 mul_w_c2_mult_18_n79
*510 mul_w_c2_mult_18_n78
*511 mul_w_c2_mult_18_n77
*512 mul_w_c2_mult_18_n76
*513 mul_w_c2_mult_18_n75
*514 mul_w_c2_mult_18_n73
*515 mul_w_c2_mult_18_n72
*516 mul_w_c2_mult_18_n71
*517 mul_w_c2_mult_18_n70
*518 mul_w_c2_mult_18_n69
*519 mul_w_c2_mult_18_n68
*520 mul_w_c2_mult_18_n67
*521 mul_w_c2_mult_18_n66
*522 mul_w_c2_mult_18_n65
*523 mul_w_c2_mult_18_n64
*524 mul_w_c2_mult_18_n63
*525 mul_w_c2_mult_18_n62
*526 mul_w_c2_mult_18_n61
*527 mul_w_c2_mult_18_n60
*528 mul_w_c2_mult_18_n59
*529 mul_w_c2_mult_18_n58
*530 mul_w_c2_mult_18_n57
*531 mul_w_c2_mult_18_n55
*532 mul_w_c2_mult_18_n54
*533 mul_w_c2_mult_18_n53
*534 mul_w_c2_mult_18_n52
*535 mul_w_c2_mult_18_n51
*536 mul_w_c2_mult_18_n50
*537 mul_w_c2_mult_18_n49
*538 mul_w_c2_mult_18_n48
*539 mul_w_c2_mult_18_n47
*540 mul_w_c2_mult_18_n46
*541 mul_w_c2_mult_18_n45
*542 mul_w_c2_mult_18_n44
*543 mul_w_c2_mult_18_n43
*544 mul_w_c2_mult_18_n41
*545 mul_w_c2_mult_18_n40
*546 mul_w_c2_mult_18_n39
*547 mul_w_c2_mult_18_n38
*548 mul_w_c2_mult_18_n37
*549 mul_w_c2_mult_18_n36
*550 mul_w_c2_mult_18_n35
*551 mul_w_c2_mult_18_n34
*552 mul_w_c2_mult_18_n33
*553 mul_w_c2_mult_18_n31
*554 mul_w_c2_mult_18_n30
*555 mul_w_c2_mult_18_n29
*556 mul_w_c2_mult_18_n28
*557 mul_w_c2_mult_18_n27
*558 mul_w_c2_mult_18_n15
*559 mul_w_c2_mult_18_n14
*560 mul_w_c2_mult_18_n13
*561 mul_w_c2_mult_18_n12
*562 mul_w_c2_mult_18_n11
*563 mul_w_c2_mult_18_n10
*564 mul_w_c2_mult_18_n9
*565 mul_w_c2_mult_18_n8
*566 mul_w_c2_mult_18_n7
*567 mul_w_c2_mult_18_n6
*568 mul_w_c2_mult_18_n5
*569 mul_w_c2_mult_18_n4
*570 reg_w_c2_n36
*571 reg_w_c2_n35
*572 reg_w_c2_n34
*573 reg_w_c2_n33
*574 reg_w_c2_n32
*575 reg_w_c2_n31
*576 reg_w_c2_n30
*577 reg_w_c2_n29
*578 reg_w_c2_n28
*579 reg_w_c2_n27
*580 reg_w_c2_n26
*581 reg_w_c2_n25
*582 reg_w_c2_n24
*583 reg_w_c2_n23
*584 reg_w_c2_n22
*585 reg_w_c2_n21
*586 reg_w_c2_n20
*587 reg_w_c2_n19
*588 reg_w_c2_n18
*589 reg_w_c2_n17
*590 reg_w_c2_n16
*591 reg_w_c2_n15
*592 reg_w_c2_n14
*593 reg_w_c2_n13
*594 reg_w_c2_n12
*595 reg_w_c2_n11
*596 reg_w_c2_n10
*597 reg_w_c2_n9
*598 reg_w_c2_n8
*599 reg_w_c2_n7
*600 reg_w_c2_n6
*601 reg_w_c2_n5
*602 reg_w_c2_n4
*603 reg_w_c2_n3
*604 reg_w_c2_n2
*605 reg_w_c2_n1
*606 mul_w_b0_P_0_
*607 mul_w_b0_P_23_
*608 mul_w_b0_mult_18_n554
*609 mul_w_b0_mult_18_n553
*610 mul_w_b0_mult_18_n552
*611 mul_w_b0_mult_18_n551
*612 mul_w_b0_mult_18_n550
*613 mul_w_b0_mult_18_n549
*614 mul_w_b0_mult_18_n548
*615 mul_w_b0_mult_18_n547
*616 mul_w_b0_mult_18_n546
*617 mul_w_b0_mult_18_n545
*618 mul_w_b0_mult_18_n544
*619 mul_w_b0_mult_18_n543
*620 mul_w_b0_mult_18_n542
*621 mul_w_b0_mult_18_n541
*622 mul_w_b0_mult_18_n540
*623 mul_w_b0_mult_18_n539
*624 mul_w_b0_mult_18_n538
*625 mul_w_b0_mult_18_n537
*626 mul_w_b0_mult_18_n536
*627 mul_w_b0_mult_18_n535
*628 mul_w_b0_mult_18_n534
*629 mul_w_b0_mult_18_n533
*630 mul_w_b0_mult_18_n532
*631 mul_w_b0_mult_18_n531
*632 mul_w_b0_mult_18_n530
*633 mul_w_b0_mult_18_n529
*634 mul_w_b0_mult_18_n528
*635 mul_w_b0_mult_18_n527
*636 mul_w_b0_mult_18_n526
*637 mul_w_b0_mult_18_n525
*638 mul_w_b0_mult_18_n524
*639 mul_w_b0_mult_18_n523
*640 mul_w_b0_mult_18_n522
*641 mul_w_b0_mult_18_n521
*642 mul_w_b0_mult_18_n520
*643 mul_w_b0_mult_18_n519
*644 mul_w_b0_mult_18_n518
*645 mul_w_b0_mult_18_n517
*646 mul_w_b0_mult_18_n516
*647 mul_w_b0_mult_18_n515
*648 mul_w_b0_mult_18_n514
*649 mul_w_b0_mult_18_n513
*650 mul_w_b0_mult_18_n512
*651 mul_w_b0_mult_18_n511
*652 mul_w_b0_mult_18_n510
*653 mul_w_b0_mult_18_n509
*654 mul_w_b0_mult_18_n508
*655 mul_w_b0_mult_18_n507
*656 mul_w_b0_mult_18_n506
*657 mul_w_b0_mult_18_n505
*658 mul_w_b0_mult_18_n504
*659 mul_w_b0_mult_18_n503
*660 mul_w_b0_mult_18_n502
*661 mul_w_b0_mult_18_n501
*662 mul_w_b0_mult_18_n500
*663 mul_w_b0_mult_18_n499
*664 mul_w_b0_mult_18_n498
*665 mul_w_b0_mult_18_n497
*666 mul_w_b0_mult_18_n496
*667 mul_w_b0_mult_18_n495
*668 mul_w_b0_mult_18_n494
*669 mul_w_b0_mult_18_n493
*670 mul_w_b0_mult_18_n492
*671 mul_w_b0_mult_18_n491
*672 mul_w_b0_mult_18_n490
*673 mul_w_b0_mult_18_n489
*674 mul_w_b0_mult_18_n488
*675 mul_w_b0_mult_18_n487
*676 mul_w_b0_mult_18_n486
*677 mul_w_b0_mult_18_n485
*678 mul_w_b0_mult_18_n484
*679 mul_w_b0_mult_18_n483
*680 mul_w_b0_mult_18_n482
*681 mul_w_b0_mult_18_n481
*682 mul_w_b0_mult_18_n480
*683 mul_w_b0_mult_18_n479
*684 mul_w_b0_mult_18_n478
*685 mul_w_b0_mult_18_n477
*686 mul_w_b0_mult_18_n476
*687 mul_w_b0_mult_18_n475
*688 mul_w_b0_mult_18_n474
*689 mul_w_b0_mult_18_n473
*690 mul_w_b0_mult_18_n472
*691 mul_w_b0_mult_18_n471
*692 mul_w_b0_mult_18_n470
*693 mul_w_b0_mult_18_n469
*694 mul_w_b0_mult_18_n468
*695 mul_w_b0_mult_18_n467
*696 mul_w_b0_mult_18_n466
*697 mul_w_b0_mult_18_n465
*698 mul_w_b0_mult_18_n464
*699 mul_w_b0_mult_18_n463
*700 mul_w_b0_mult_18_n462
*701 mul_w_b0_mult_18_n461
*702 mul_w_b0_mult_18_n460
*703 mul_w_b0_mult_18_n459
*704 mul_w_b0_mult_18_n458
*705 mul_w_b0_mult_18_n457
*706 mul_w_b0_mult_18_n456
*707 mul_w_b0_mult_18_n455
*708 mul_w_b0_mult_18_n454
*709 mul_w_b0_mult_18_n453
*710 mul_w_b0_mult_18_n452
*711 mul_w_b0_mult_18_n451
*712 mul_w_b0_mult_18_n450
*713 mul_w_b0_mult_18_n449
*714 mul_w_b0_mult_18_n448
*715 mul_w_b0_mult_18_n447
*716 mul_w_b0_mult_18_n446
*717 mul_w_b0_mult_18_n445
*718 mul_w_b0_mult_18_n444
*719 mul_w_b0_mult_18_n443
*720 mul_w_b0_mult_18_n442
*721 mul_w_b0_mult_18_n441
*722 mul_w_b0_mult_18_n440
*723 mul_w_b0_mult_18_n439
*724 mul_w_b0_mult_18_n438
*725 mul_w_b0_mult_18_n437
*726 mul_w_b0_mult_18_n434
*727 mul_w_b0_mult_18_n433
*728 mul_w_b0_mult_18_n432
*729 mul_w_b0_mult_18_n431
*730 mul_w_b0_mult_18_n430
*731 mul_w_b0_mult_18_n429
*732 mul_w_b0_mult_18_n428
*733 mul_w_b0_mult_18_n427
*734 mul_w_b0_mult_18_n426
*735 mul_w_b0_mult_18_n425
*736 mul_w_b0_mult_18_n424
*737 mul_w_b0_mult_18_n423
*738 mul_w_b0_mult_18_n422
*739 mul_w_b0_mult_18_n421
*740 mul_w_b0_mult_18_n420
*741 mul_w_b0_mult_18_n419
*742 mul_w_b0_mult_18_n418
*743 mul_w_b0_mult_18_n417
*744 mul_w_b0_mult_18_n416
*745 mul_w_b0_mult_18_n415
*746 mul_w_b0_mult_18_n414
*747 mul_w_b0_mult_18_n228
*748 mul_w_b0_mult_18_n227
*749 mul_w_b0_mult_18_n226
*750 mul_w_b0_mult_18_n225
*751 mul_w_b0_mult_18_n224
*752 mul_w_b0_mult_18_n223
*753 mul_w_b0_mult_18_n222
*754 mul_w_b0_mult_18_n221
*755 mul_w_b0_mult_18_n220
*756 mul_w_b0_mult_18_n217
*757 mul_w_b0_mult_18_n216
*758 mul_w_b0_mult_18_n215
*759 mul_w_b0_mult_18_n214
*760 mul_w_b0_mult_18_n213
*761 mul_w_b0_mult_18_n212
*762 mul_w_b0_mult_18_n211
*763 mul_w_b0_mult_18_n210
*764 mul_w_b0_mult_18_n209
*765 mul_w_b0_mult_18_n208
*766 mul_w_b0_mult_18_n206
*767 mul_w_b0_mult_18_n205
*768 mul_w_b0_mult_18_n204
*769 mul_w_b0_mult_18_n203
*770 mul_w_b0_mult_18_n202
*771 mul_w_b0_mult_18_n201
*772 mul_w_b0_mult_18_n200
*773 mul_w_b0_mult_18_n199
*774 mul_w_b0_mult_18_n197
*775 mul_w_b0_mult_18_n196
*776 mul_w_b0_mult_18_n194
*777 mul_w_b0_mult_18_n193
*778 mul_w_b0_mult_18_n192
*779 mul_w_b0_mult_18_n191
*780 mul_w_b0_mult_18_n190
*781 mul_w_b0_mult_18_n189
*782 mul_w_b0_mult_18_n188
*783 mul_w_b0_mult_18_n187
*784 mul_w_b0_mult_18_n186
*785 mul_w_b0_mult_18_n185
*786 mul_w_b0_mult_18_n184
*787 mul_w_b0_mult_18_n182
*788 mul_w_b0_mult_18_n181
*789 mul_w_b0_mult_18_n180
*790 mul_w_b0_mult_18_n179
*791 mul_w_b0_mult_18_n177
*792 mul_w_b0_mult_18_n176
*793 mul_w_b0_mult_18_n175
*794 mul_w_b0_mult_18_n174
*795 mul_w_b0_mult_18_n173
*796 mul_w_b0_mult_18_n172
*797 mul_w_b0_mult_18_n170
*798 mul_w_b0_mult_18_n169
*799 mul_w_b0_mult_18_n168
*800 mul_w_b0_mult_18_n167
*801 mul_w_b0_mult_18_n166
*802 mul_w_b0_mult_18_n165
*803 mul_w_b0_mult_18_n164
*804 mul_w_b0_mult_18_n163
*805 mul_w_b0_mult_18_n162
*806 mul_w_b0_mult_18_n161
*807 mul_w_b0_mult_18_n160
*808 mul_w_b0_mult_18_n156
*809 mul_w_b0_mult_18_n155
*810 mul_w_b0_mult_18_n154
*811 mul_w_b0_mult_18_n153
*812 mul_w_b0_mult_18_n134
*813 mul_w_b0_mult_18_n133
*814 mul_w_b0_mult_18_n132
*815 mul_w_b0_mult_18_n131
*816 mul_w_b0_mult_18_n130
*817 mul_w_b0_mult_18_n129
*818 mul_w_b0_mult_18_n128
*819 mul_w_b0_mult_18_n127
*820 mul_w_b0_mult_18_n126
*821 mul_w_b0_mult_18_n125
*822 mul_w_b0_mult_18_n124
*823 mul_w_b0_mult_18_n123
*824 mul_w_b0_mult_18_n122
*825 mul_w_b0_mult_18_n121
*826 mul_w_b0_mult_18_n120
*827 mul_w_b0_mult_18_n119
*828 mul_w_b0_mult_18_n118
*829 mul_w_b0_mult_18_n117
*830 mul_w_b0_mult_18_n116
*831 mul_w_b0_mult_18_n115
*832 mul_w_b0_mult_18_n114
*833 mul_w_b0_mult_18_n113
*834 mul_w_b0_mult_18_n112
*835 mul_w_b0_mult_18_n111
*836 mul_w_b0_mult_18_n110
*837 mul_w_b0_mult_18_n109
*838 mul_w_b0_mult_18_n108
*839 mul_w_b0_mult_18_n107
*840 mul_w_b0_mult_18_n106
*841 mul_w_b0_mult_18_n105
*842 mul_w_b0_mult_18_n104
*843 mul_w_b0_mult_18_n103
*844 mul_w_b0_mult_18_n102
*845 mul_w_b0_mult_18_n101
*846 mul_w_b0_mult_18_n100
*847 mul_w_b0_mult_18_n99
*848 mul_w_b0_mult_18_n98
*849 mul_w_b0_mult_18_n97
*850 mul_w_b0_mult_18_n96
*851 mul_w_b0_mult_18_n95
*852 mul_w_b0_mult_18_n94
*853 mul_w_b0_mult_18_n93
*854 mul_w_b0_mult_18_n92
*855 mul_w_b0_mult_18_n91
*856 mul_w_b0_mult_18_n90
*857 mul_w_b0_mult_18_n89
*858 mul_w_b0_mult_18_n88
*859 mul_w_b0_mult_18_n87
*860 mul_w_b0_mult_18_n86
*861 mul_w_b0_mult_18_n85
*862 mul_w_b0_mult_18_n84
*863 mul_w_b0_mult_18_n83
*864 mul_w_b0_mult_18_n82
*865 mul_w_b0_mult_18_n81
*866 mul_w_b0_mult_18_n80
*867 mul_w_b0_mult_18_n79
*868 mul_w_b0_mult_18_n78
*869 mul_w_b0_mult_18_n77
*870 mul_w_b0_mult_18_n76
*871 mul_w_b0_mult_18_n75
*872 mul_w_b0_mult_18_n73
*873 mul_w_b0_mult_18_n72
*874 mul_w_b0_mult_18_n71
*875 mul_w_b0_mult_18_n70
*876 mul_w_b0_mult_18_n69
*877 mul_w_b0_mult_18_n68
*878 mul_w_b0_mult_18_n67
*879 mul_w_b0_mult_18_n66
*880 mul_w_b0_mult_18_n65
*881 mul_w_b0_mult_18_n64
*882 mul_w_b0_mult_18_n63
*883 mul_w_b0_mult_18_n62
*884 mul_w_b0_mult_18_n61
*885 mul_w_b0_mult_18_n60
*886 mul_w_b0_mult_18_n59
*887 mul_w_b0_mult_18_n58
*888 mul_w_b0_mult_18_n57
*889 mul_w_b0_mult_18_n55
*890 mul_w_b0_mult_18_n54
*891 mul_w_b0_mult_18_n53
*892 mul_w_b0_mult_18_n52
*893 mul_w_b0_mult_18_n51
*894 mul_w_b0_mult_18_n50
*895 mul_w_b0_mult_18_n49
*896 mul_w_b0_mult_18_n48
*897 mul_w_b0_mult_18_n47
*898 mul_w_b0_mult_18_n46
*899 mul_w_b0_mult_18_n45
*900 mul_w_b0_mult_18_n44
*901 mul_w_b0_mult_18_n43
*902 mul_w_b0_mult_18_n41
*903 mul_w_b0_mult_18_n40
*904 mul_w_b0_mult_18_n39
*905 mul_w_b0_mult_18_n38
*906 mul_w_b0_mult_18_n37
*907 mul_w_b0_mult_18_n36
*908 mul_w_b0_mult_18_n35
*909 mul_w_b0_mult_18_n34
*910 mul_w_b0_mult_18_n33
*911 mul_w_b0_mult_18_n31
*912 mul_w_b0_mult_18_n30
*913 mul_w_b0_mult_18_n29
*914 mul_w_b0_mult_18_n28
*915 mul_w_b0_mult_18_n27
*916 mul_w_b0_mult_18_n15
*917 mul_w_b0_mult_18_n14
*918 mul_w_b0_mult_18_n13
*919 mul_w_b0_mult_18_n12
*920 mul_w_b0_mult_18_n11
*921 mul_w_b0_mult_18_n10
*922 mul_w_b0_mult_18_n9
*923 mul_w_b0_mult_18_n8
*924 mul_w_b0_mult_18_n7
*925 mul_w_b0_mult_18_n6
*926 mul_w_b0_mult_18_n5
*927 regN_w_b0_n68
*928 regN_w_b0_n67
*929 regN_w_b0_n66
*930 regN_w_b0_n65
*931 regN_w_b0_n64
*932 regN_w_b0_n63
*933 regN_w_b0_n62
*934 regN_w_b0_n61
*935 regN_w_b0_n60
*936 regN_w_b0_n59
*937 regN_w_b0_n58
*938 regN_w_b0_n57
*939 regN_w_b0_n56
*940 regN_w_b0_n55
*941 regN_w_b0_n54
*942 regN_w_b0_n53
*943 regN_w_b0_n52
*944 regN_w_b0_n51
*945 regN_w_b0_n50
*946 regN_w_b0_n49
*947 regN_w_b0_n48
*948 regN_w_b0_n47
*949 regN_w_b0_n46
*950 regN_w_b0_n45
*951 regN_w_b0_n44
*952 regN_w_b0_n43
*953 regN_w_b0_n42
*954 regN_w_b0_n41
*955 regN_w_b0_n40
*956 regN_w_b0_n39
*957 regN_w_b0_n38
*958 regN_w_b0_n37
*959 regN_w_b0_n36
*960 regN_w_b02_n68
*961 regN_w_b02_n67
*962 regN_w_b02_n66
*963 regN_w_b02_n65
*964 regN_w_b02_n64
*965 regN_w_b02_n63
*966 regN_w_b02_n62
*967 regN_w_b02_n61
*968 regN_w_b02_n60
*969 regN_w_b02_n59
*970 regN_w_b02_n58
*971 regN_w_b02_n57
*972 regN_w_b02_n56
*973 regN_w_b02_n55
*974 regN_w_b02_n54
*975 regN_w_b02_n53
*976 regN_w_b02_n52
*977 regN_w_b02_n51
*978 regN_w_b02_n50
*979 regN_w_b02_n49
*980 regN_w_b02_n48
*981 regN_w_b02_n47
*982 regN_w_b02_n46
*983 regN_w_b02_n45
*984 regN_w_b02_n44
*985 regN_w_b02_n43
*986 regN_w_b02_n42
*987 regN_w_b02_n41
*988 regN_w_b02_n40
*989 regN_w_b02_n39
*990 regN_w_b02_n38
*991 regN_w_b02_n37
*992 regN_w_b02_n36
*993 mul_w_c1_P_0_
*994 mul_w_c1_P_23_
*995 mul_w_c1_mult_18_n554
*996 mul_w_c1_mult_18_n553
*997 mul_w_c1_mult_18_n552
*998 mul_w_c1_mult_18_n551
*999 mul_w_c1_mult_18_n550
*1000 mul_w_c1_mult_18_n549
*1001 mul_w_c1_mult_18_n548
*1002 mul_w_c1_mult_18_n547
*1003 mul_w_c1_mult_18_n546
*1004 mul_w_c1_mult_18_n545
*1005 mul_w_c1_mult_18_n544
*1006 mul_w_c1_mult_18_n543
*1007 mul_w_c1_mult_18_n542
*1008 mul_w_c1_mult_18_n541
*1009 mul_w_c1_mult_18_n540
*1010 mul_w_c1_mult_18_n539
*1011 mul_w_c1_mult_18_n538
*1012 mul_w_c1_mult_18_n537
*1013 mul_w_c1_mult_18_n536
*1014 mul_w_c1_mult_18_n535
*1015 mul_w_c1_mult_18_n534
*1016 mul_w_c1_mult_18_n533
*1017 mul_w_c1_mult_18_n532
*1018 mul_w_c1_mult_18_n531
*1019 mul_w_c1_mult_18_n530
*1020 mul_w_c1_mult_18_n529
*1021 mul_w_c1_mult_18_n528
*1022 mul_w_c1_mult_18_n527
*1023 mul_w_c1_mult_18_n526
*1024 mul_w_c1_mult_18_n525
*1025 mul_w_c1_mult_18_n524
*1026 mul_w_c1_mult_18_n523
*1027 mul_w_c1_mult_18_n522
*1028 mul_w_c1_mult_18_n521
*1029 mul_w_c1_mult_18_n520
*1030 mul_w_c1_mult_18_n519
*1031 mul_w_c1_mult_18_n518
*1032 mul_w_c1_mult_18_n517
*1033 mul_w_c1_mult_18_n516
*1034 mul_w_c1_mult_18_n515
*1035 mul_w_c1_mult_18_n514
*1036 mul_w_c1_mult_18_n513
*1037 mul_w_c1_mult_18_n512
*1038 mul_w_c1_mult_18_n511
*1039 mul_w_c1_mult_18_n510
*1040 mul_w_c1_mult_18_n509
*1041 mul_w_c1_mult_18_n508
*1042 mul_w_c1_mult_18_n507
*1043 mul_w_c1_mult_18_n506
*1044 mul_w_c1_mult_18_n505
*1045 mul_w_c1_mult_18_n504
*1046 mul_w_c1_mult_18_n503
*1047 mul_w_c1_mult_18_n502
*1048 mul_w_c1_mult_18_n501
*1049 mul_w_c1_mult_18_n500
*1050 mul_w_c1_mult_18_n499
*1051 mul_w_c1_mult_18_n498
*1052 mul_w_c1_mult_18_n497
*1053 mul_w_c1_mult_18_n496
*1054 mul_w_c1_mult_18_n495
*1055 mul_w_c1_mult_18_n494
*1056 mul_w_c1_mult_18_n493
*1057 mul_w_c1_mult_18_n492
*1058 mul_w_c1_mult_18_n491
*1059 mul_w_c1_mult_18_n490
*1060 mul_w_c1_mult_18_n489
*1061 mul_w_c1_mult_18_n488
*1062 mul_w_c1_mult_18_n487
*1063 mul_w_c1_mult_18_n486
*1064 mul_w_c1_mult_18_n485
*1065 mul_w_c1_mult_18_n484
*1066 mul_w_c1_mult_18_n483
*1067 mul_w_c1_mult_18_n482
*1068 mul_w_c1_mult_18_n481
*1069 mul_w_c1_mult_18_n480
*1070 mul_w_c1_mult_18_n479
*1071 mul_w_c1_mult_18_n478
*1072 mul_w_c1_mult_18_n477
*1073 mul_w_c1_mult_18_n476
*1074 mul_w_c1_mult_18_n475
*1075 mul_w_c1_mult_18_n474
*1076 mul_w_c1_mult_18_n473
*1077 mul_w_c1_mult_18_n472
*1078 mul_w_c1_mult_18_n471
*1079 mul_w_c1_mult_18_n470
*1080 mul_w_c1_mult_18_n469
*1081 mul_w_c1_mult_18_n468
*1082 mul_w_c1_mult_18_n467
*1083 mul_w_c1_mult_18_n466
*1084 mul_w_c1_mult_18_n465
*1085 mul_w_c1_mult_18_n464
*1086 mul_w_c1_mult_18_n463
*1087 mul_w_c1_mult_18_n462
*1088 mul_w_c1_mult_18_n461
*1089 mul_w_c1_mult_18_n460
*1090 mul_w_c1_mult_18_n459
*1091 mul_w_c1_mult_18_n458
*1092 mul_w_c1_mult_18_n457
*1093 mul_w_c1_mult_18_n456
*1094 mul_w_c1_mult_18_n455
*1095 mul_w_c1_mult_18_n454
*1096 mul_w_c1_mult_18_n453
*1097 mul_w_c1_mult_18_n452
*1098 mul_w_c1_mult_18_n451
*1099 mul_w_c1_mult_18_n450
*1100 mul_w_c1_mult_18_n449
*1101 mul_w_c1_mult_18_n448
*1102 mul_w_c1_mult_18_n447
*1103 mul_w_c1_mult_18_n446
*1104 mul_w_c1_mult_18_n445
*1105 mul_w_c1_mult_18_n444
*1106 mul_w_c1_mult_18_n443
*1107 mul_w_c1_mult_18_n442
*1108 mul_w_c1_mult_18_n441
*1109 mul_w_c1_mult_18_n440
*1110 mul_w_c1_mult_18_n439
*1111 mul_w_c1_mult_18_n438
*1112 mul_w_c1_mult_18_n437
*1113 mul_w_c1_mult_18_n436
*1114 mul_w_c1_mult_18_n435
*1115 mul_w_c1_mult_18_n434
*1116 mul_w_c1_mult_18_n433
*1117 mul_w_c1_mult_18_n432
*1118 mul_w_c1_mult_18_n431
*1119 mul_w_c1_mult_18_n430
*1120 mul_w_c1_mult_18_n429
*1121 mul_w_c1_mult_18_n428
*1122 mul_w_c1_mult_18_n427
*1123 mul_w_c1_mult_18_n426
*1124 mul_w_c1_mult_18_n425
*1125 mul_w_c1_mult_18_n424
*1126 mul_w_c1_mult_18_n423
*1127 mul_w_c1_mult_18_n422
*1128 mul_w_c1_mult_18_n421
*1129 mul_w_c1_mult_18_n420
*1130 mul_w_c1_mult_18_n419
*1131 mul_w_c1_mult_18_n418
*1132 mul_w_c1_mult_18_n417
*1133 mul_w_c1_mult_18_n416
*1134 mul_w_c1_mult_18_n415
*1135 mul_w_c1_mult_18_n414
*1136 mul_w_c1_mult_18_n228
*1137 mul_w_c1_mult_18_n227
*1138 mul_w_c1_mult_18_n226
*1139 mul_w_c1_mult_18_n225
*1140 mul_w_c1_mult_18_n224
*1141 mul_w_c1_mult_18_n223
*1142 mul_w_c1_mult_18_n222
*1143 mul_w_c1_mult_18_n221
*1144 mul_w_c1_mult_18_n220
*1145 mul_w_c1_mult_18_n217
*1146 mul_w_c1_mult_18_n216
*1147 mul_w_c1_mult_18_n215
*1148 mul_w_c1_mult_18_n214
*1149 mul_w_c1_mult_18_n213
*1150 mul_w_c1_mult_18_n212
*1151 mul_w_c1_mult_18_n211
*1152 mul_w_c1_mult_18_n210
*1153 mul_w_c1_mult_18_n209
*1154 mul_w_c1_mult_18_n208
*1155 mul_w_c1_mult_18_n206
*1156 mul_w_c1_mult_18_n205
*1157 mul_w_c1_mult_18_n204
*1158 mul_w_c1_mult_18_n203
*1159 mul_w_c1_mult_18_n202
*1160 mul_w_c1_mult_18_n201
*1161 mul_w_c1_mult_18_n200
*1162 mul_w_c1_mult_18_n199
*1163 mul_w_c1_mult_18_n197
*1164 mul_w_c1_mult_18_n196
*1165 mul_w_c1_mult_18_n194
*1166 mul_w_c1_mult_18_n193
*1167 mul_w_c1_mult_18_n192
*1168 mul_w_c1_mult_18_n191
*1169 mul_w_c1_mult_18_n190
*1170 mul_w_c1_mult_18_n189
*1171 mul_w_c1_mult_18_n188
*1172 mul_w_c1_mult_18_n187
*1173 mul_w_c1_mult_18_n186
*1174 mul_w_c1_mult_18_n185
*1175 mul_w_c1_mult_18_n184
*1176 mul_w_c1_mult_18_n182
*1177 mul_w_c1_mult_18_n181
*1178 mul_w_c1_mult_18_n180
*1179 mul_w_c1_mult_18_n179
*1180 mul_w_c1_mult_18_n177
*1181 mul_w_c1_mult_18_n176
*1182 mul_w_c1_mult_18_n175
*1183 mul_w_c1_mult_18_n174
*1184 mul_w_c1_mult_18_n173
*1185 mul_w_c1_mult_18_n172
*1186 mul_w_c1_mult_18_n170
*1187 mul_w_c1_mult_18_n169
*1188 mul_w_c1_mult_18_n168
*1189 mul_w_c1_mult_18_n167
*1190 mul_w_c1_mult_18_n166
*1191 mul_w_c1_mult_18_n165
*1192 mul_w_c1_mult_18_n164
*1193 mul_w_c1_mult_18_n163
*1194 mul_w_c1_mult_18_n162
*1195 mul_w_c1_mult_18_n161
*1196 mul_w_c1_mult_18_n160
*1197 mul_w_c1_mult_18_n156
*1198 mul_w_c1_mult_18_n155
*1199 mul_w_c1_mult_18_n154
*1200 mul_w_c1_mult_18_n153
*1201 mul_w_c1_mult_18_n134
*1202 mul_w_c1_mult_18_n133
*1203 mul_w_c1_mult_18_n132
*1204 mul_w_c1_mult_18_n131
*1205 mul_w_c1_mult_18_n130
*1206 mul_w_c1_mult_18_n129
*1207 mul_w_c1_mult_18_n128
*1208 mul_w_c1_mult_18_n127
*1209 mul_w_c1_mult_18_n126
*1210 mul_w_c1_mult_18_n125
*1211 mul_w_c1_mult_18_n124
*1212 mul_w_c1_mult_18_n123
*1213 mul_w_c1_mult_18_n122
*1214 mul_w_c1_mult_18_n121
*1215 mul_w_c1_mult_18_n120
*1216 mul_w_c1_mult_18_n119
*1217 mul_w_c1_mult_18_n118
*1218 mul_w_c1_mult_18_n117
*1219 mul_w_c1_mult_18_n116
*1220 mul_w_c1_mult_18_n115
*1221 mul_w_c1_mult_18_n114
*1222 mul_w_c1_mult_18_n113
*1223 mul_w_c1_mult_18_n112
*1224 mul_w_c1_mult_18_n111
*1225 mul_w_c1_mult_18_n110
*1226 mul_w_c1_mult_18_n109
*1227 mul_w_c1_mult_18_n108
*1228 mul_w_c1_mult_18_n107
*1229 mul_w_c1_mult_18_n106
*1230 mul_w_c1_mult_18_n105
*1231 mul_w_c1_mult_18_n104
*1232 mul_w_c1_mult_18_n103
*1233 mul_w_c1_mult_18_n102
*1234 mul_w_c1_mult_18_n101
*1235 mul_w_c1_mult_18_n100
*1236 mul_w_c1_mult_18_n99
*1237 mul_w_c1_mult_18_n98
*1238 mul_w_c1_mult_18_n97
*1239 mul_w_c1_mult_18_n96
*1240 mul_w_c1_mult_18_n95
*1241 mul_w_c1_mult_18_n94